version 3
run General-0-20260415-13:32:36-124339
attr configname General
attr datetime 20260415-13:32:36
attr datetimef 20260415-133236
attr experiment General
attr inifile omnetpp.ini
attr iterationvars ""
attr iterationvarsd ""
attr iterationvarsf ""
attr measurement ""
attr network dronestfg.simulations.DronesNetwork
attr processid 124339
attr repetition 0
attr replication #0
attr resultdir results
attr runnumber 0
attr seedset 0
config image-path ../../../INET/inet/images:../../../VEINS/veins-5.3.1/veins-veins-5.3.1/images:../../../omnetpp-6.0.3/samples/simu5g/images:../../../VEINS/veins-5.3.1/veins_inet/images
config network dronestfg.simulations.DronesNetwork
config sim-time-limit 4000s
config *.playgroundSizeX 1500m
config *.playgroundSizeY 1300m
config *.playgroundSizeZ 500m
config *.manager.updateInterval 1s
config *.manager.host "\"localhost\""
config *.manager.port 9999
config *.manager.autoShutdown true
config *.manager.launchConfig "xmldoc(\"launch.xml\")"
config *.manager.order 1
config *.manager.margin 250
config *.manager.moduleType "\"uav_type=dronestfg.nodes.UAV *=dronestfg.nodes.UAV\""
config *.manager.moduleName "\"uav_type=uav *=car\""
config *.manager.moduleDisplayString "\"uav_type='i=block/aircraft' *='i=,tt='\""
config *.roadsVisualizer.drawRoads true
config *.roadsVisualizer.lineWidth 2
config *.roadsVisualizer.roadColor "\"gray\""

par DronesNetwork.car[13].mobility typename "\"org.car2x.veins.subprojects.veins_inet.VeinsInetMobility\""
par DronesNetwork.car[13].mobility subjectModule "\"^\""
par DronesNetwork.car[13].mobility coordinateSystemModule "\"\""
par DronesNetwork.car[13].mobility displayStringTextFormat "\"p: %p\\nv: %v\""
attr mutable ""
par DronesNetwork.car[13].mobility updateDisplayString true
par DronesNetwork.car[13].mobility constraintAreaMinX "-inf m"
attr unit m
par DronesNetwork.car[13].mobility constraintAreaMinY "-inf m"
attr unit m
par DronesNetwork.car[13].mobility constraintAreaMinZ "-inf m"
attr unit m
par DronesNetwork.car[13].mobility constraintAreaMaxX "inf m"
attr unit m
par DronesNetwork.car[13].mobility constraintAreaMaxY "inf m"
attr unit m
par DronesNetwork.car[13].mobility constraintAreaMaxZ "inf m"
attr unit m
par DronesNetwork.car[13].mobility initFromDisplayString true
par DronesNetwork.car[13] typename "\"dronestfg.nodes.UAV\""
par DronesNetwork.car[13] mobilityType "\"org.car2x.veins.subprojects.veins_inet.VeinsInetMobility\""
par DronesNetwork.car[11].mobility typename "\"org.car2x.veins.subprojects.veins_inet.VeinsInetMobility\""
par DronesNetwork.car[11].mobility subjectModule "\"^\""
par DronesNetwork.car[11].mobility coordinateSystemModule "\"\""
par DronesNetwork.car[11].mobility displayStringTextFormat "\"p: %p\\nv: %v\""
attr mutable ""
par DronesNetwork.car[11].mobility updateDisplayString true
par DronesNetwork.car[11].mobility constraintAreaMinX "-inf m"
attr unit m
par DronesNetwork.car[11].mobility constraintAreaMinY "-inf m"
attr unit m
par DronesNetwork.car[11].mobility constraintAreaMinZ "-inf m"
attr unit m
par DronesNetwork.car[11].mobility constraintAreaMaxX "inf m"
attr unit m
par DronesNetwork.car[11].mobility constraintAreaMaxY "inf m"
attr unit m
par DronesNetwork.car[11].mobility constraintAreaMaxZ "inf m"
attr unit m
par DronesNetwork.car[11].mobility initFromDisplayString true
par DronesNetwork.car[11] typename "\"dronestfg.nodes.UAV\""
par DronesNetwork.car[11] mobilityType "\"org.car2x.veins.subprojects.veins_inet.VeinsInetMobility\""
par DronesNetwork.car[10].mobility typename "\"org.car2x.veins.subprojects.veins_inet.VeinsInetMobility\""
par DronesNetwork.car[10].mobility subjectModule "\"^\""
par DronesNetwork.car[10].mobility coordinateSystemModule "\"\""
par DronesNetwork.car[10].mobility displayStringTextFormat "\"p: %p\\nv: %v\""
attr mutable ""
par DronesNetwork.car[10].mobility updateDisplayString true
par DronesNetwork.car[10].mobility constraintAreaMinX "-inf m"
attr unit m
par DronesNetwork.car[10].mobility constraintAreaMinY "-inf m"
attr unit m
par DronesNetwork.car[10].mobility constraintAreaMinZ "-inf m"
attr unit m
par DronesNetwork.car[10].mobility constraintAreaMaxX "inf m"
attr unit m
par DronesNetwork.car[10].mobility constraintAreaMaxY "inf m"
attr unit m
par DronesNetwork.car[10].mobility constraintAreaMaxZ "inf m"
attr unit m
par DronesNetwork.car[10].mobility initFromDisplayString true
par DronesNetwork.car[10] typename "\"dronestfg.nodes.UAV\""
par DronesNetwork.car[10] mobilityType "\"org.car2x.veins.subprojects.veins_inet.VeinsInetMobility\""
par DronesNetwork.car[12].mobility typename "\"org.car2x.veins.subprojects.veins_inet.VeinsInetMobility\""
par DronesNetwork.car[12].mobility subjectModule "\"^\""
par DronesNetwork.car[12].mobility coordinateSystemModule "\"\""
par DronesNetwork.car[12].mobility displayStringTextFormat "\"p: %p\\nv: %v\""
attr mutable ""
par DronesNetwork.car[12].mobility updateDisplayString true
par DronesNetwork.car[12].mobility constraintAreaMinX "-inf m"
attr unit m
par DronesNetwork.car[12].mobility constraintAreaMinY "-inf m"
attr unit m
par DronesNetwork.car[12].mobility constraintAreaMinZ "-inf m"
attr unit m
par DronesNetwork.car[12].mobility constraintAreaMaxX "inf m"
attr unit m
par DronesNetwork.car[12].mobility constraintAreaMaxY "inf m"
attr unit m
par DronesNetwork.car[12].mobility constraintAreaMaxZ "inf m"
attr unit m
par DronesNetwork.car[12].mobility initFromDisplayString true
par DronesNetwork.car[12] typename "\"dronestfg.nodes.UAV\""
par DronesNetwork.car[12] mobilityType "\"org.car2x.veins.subprojects.veins_inet.VeinsInetMobility\""
par DronesNetwork.car[18].mobility typename "\"org.car2x.veins.subprojects.veins_inet.VeinsInetMobility\""
par DronesNetwork.car[18].mobility subjectModule "\"^\""
par DronesNetwork.car[18].mobility coordinateSystemModule "\"\""
par DronesNetwork.car[18].mobility displayStringTextFormat "\"p: %p\\nv: %v\""
attr mutable ""
par DronesNetwork.car[18].mobility updateDisplayString true
par DronesNetwork.car[18].mobility constraintAreaMinX "-inf m"
attr unit m
par DronesNetwork.car[18].mobility constraintAreaMinY "-inf m"
attr unit m
par DronesNetwork.car[18].mobility constraintAreaMinZ "-inf m"
attr unit m
par DronesNetwork.car[18].mobility constraintAreaMaxX "inf m"
attr unit m
par DronesNetwork.car[18].mobility constraintAreaMaxY "inf m"
attr unit m
par DronesNetwork.car[18].mobility constraintAreaMaxZ "inf m"
attr unit m
par DronesNetwork.car[18].mobility initFromDisplayString true
par DronesNetwork.car[18] typename "\"dronestfg.nodes.UAV\""
par DronesNetwork.car[18] mobilityType "\"org.car2x.veins.subprojects.veins_inet.VeinsInetMobility\""
par DronesNetwork.car[14].mobility typename "\"org.car2x.veins.subprojects.veins_inet.VeinsInetMobility\""
par DronesNetwork.car[14].mobility subjectModule "\"^\""
par DronesNetwork.car[14].mobility coordinateSystemModule "\"\""
par DronesNetwork.car[14].mobility displayStringTextFormat "\"p: %p\\nv: %v\""
attr mutable ""
par DronesNetwork.car[14].mobility updateDisplayString true
par DronesNetwork.car[14].mobility constraintAreaMinX "-inf m"
attr unit m
par DronesNetwork.car[14].mobility constraintAreaMinY "-inf m"
attr unit m
par DronesNetwork.car[14].mobility constraintAreaMinZ "-inf m"
attr unit m
par DronesNetwork.car[14].mobility constraintAreaMaxX "inf m"
attr unit m
par DronesNetwork.car[14].mobility constraintAreaMaxY "inf m"
attr unit m
par DronesNetwork.car[14].mobility constraintAreaMaxZ "inf m"
attr unit m
par DronesNetwork.car[14].mobility initFromDisplayString true
par DronesNetwork.car[14] typename "\"dronestfg.nodes.UAV\""
par DronesNetwork.car[14] mobilityType "\"org.car2x.veins.subprojects.veins_inet.VeinsInetMobility\""
par DronesNetwork.car[15].mobility typename "\"org.car2x.veins.subprojects.veins_inet.VeinsInetMobility\""
par DronesNetwork.car[15].mobility subjectModule "\"^\""
par DronesNetwork.car[15].mobility coordinateSystemModule "\"\""
par DronesNetwork.car[15].mobility displayStringTextFormat "\"p: %p\\nv: %v\""
attr mutable ""
par DronesNetwork.car[15].mobility updateDisplayString true
par DronesNetwork.car[15].mobility constraintAreaMinX "-inf m"
attr unit m
par DronesNetwork.car[15].mobility constraintAreaMinY "-inf m"
attr unit m
par DronesNetwork.car[15].mobility constraintAreaMinZ "-inf m"
attr unit m
par DronesNetwork.car[15].mobility constraintAreaMaxX "inf m"
attr unit m
par DronesNetwork.car[15].mobility constraintAreaMaxY "inf m"
attr unit m
par DronesNetwork.car[15].mobility constraintAreaMaxZ "inf m"
attr unit m
par DronesNetwork.car[15].mobility initFromDisplayString true
par DronesNetwork.car[15] typename "\"dronestfg.nodes.UAV\""
par DronesNetwork.car[15] mobilityType "\"org.car2x.veins.subprojects.veins_inet.VeinsInetMobility\""
par DronesNetwork.car[16].mobility typename "\"org.car2x.veins.subprojects.veins_inet.VeinsInetMobility\""
par DronesNetwork.car[16].mobility subjectModule "\"^\""
par DronesNetwork.car[16].mobility coordinateSystemModule "\"\""
par DronesNetwork.car[16].mobility displayStringTextFormat "\"p: %p\\nv: %v\""
attr mutable ""
par DronesNetwork.car[16].mobility updateDisplayString true
par DronesNetwork.car[16].mobility constraintAreaMinX "-inf m"
attr unit m
par DronesNetwork.car[16].mobility constraintAreaMinY "-inf m"
attr unit m
par DronesNetwork.car[16].mobility constraintAreaMinZ "-inf m"
attr unit m
par DronesNetwork.car[16].mobility constraintAreaMaxX "inf m"
attr unit m
par DronesNetwork.car[16].mobility constraintAreaMaxY "inf m"
attr unit m
par DronesNetwork.car[16].mobility constraintAreaMaxZ "inf m"
attr unit m
par DronesNetwork.car[16].mobility initFromDisplayString true
par DronesNetwork.car[16] typename "\"dronestfg.nodes.UAV\""
par DronesNetwork.car[16] mobilityType "\"org.car2x.veins.subprojects.veins_inet.VeinsInetMobility\""
par DronesNetwork.car[31].mobility typename "\"org.car2x.veins.subprojects.veins_inet.VeinsInetMobility\""
par DronesNetwork.car[31].mobility subjectModule "\"^\""
par DronesNetwork.car[31].mobility coordinateSystemModule "\"\""
par DronesNetwork.car[31].mobility displayStringTextFormat "\"p: %p\\nv: %v\""
attr mutable ""
par DronesNetwork.car[31].mobility updateDisplayString true
par DronesNetwork.car[31].mobility constraintAreaMinX "-inf m"
attr unit m
par DronesNetwork.car[31].mobility constraintAreaMinY "-inf m"
attr unit m
par DronesNetwork.car[31].mobility constraintAreaMinZ "-inf m"
attr unit m
par DronesNetwork.car[31].mobility constraintAreaMaxX "inf m"
attr unit m
par DronesNetwork.car[31].mobility constraintAreaMaxY "inf m"
attr unit m
par DronesNetwork.car[31].mobility constraintAreaMaxZ "inf m"
attr unit m
par DronesNetwork.car[31].mobility initFromDisplayString true
par DronesNetwork.car[31] typename "\"dronestfg.nodes.UAV\""
par DronesNetwork.car[31] mobilityType "\"org.car2x.veins.subprojects.veins_inet.VeinsInetMobility\""
par DronesNetwork.car[29].mobility typename "\"org.car2x.veins.subprojects.veins_inet.VeinsInetMobility\""
par DronesNetwork.car[29].mobility subjectModule "\"^\""
par DronesNetwork.car[29].mobility coordinateSystemModule "\"\""
par DronesNetwork.car[29].mobility displayStringTextFormat "\"p: %p\\nv: %v\""
attr mutable ""
par DronesNetwork.car[29].mobility updateDisplayString true
par DronesNetwork.car[29].mobility constraintAreaMinX "-inf m"
attr unit m
par DronesNetwork.car[29].mobility constraintAreaMinY "-inf m"
attr unit m
par DronesNetwork.car[29].mobility constraintAreaMinZ "-inf m"
attr unit m
par DronesNetwork.car[29].mobility constraintAreaMaxX "inf m"
attr unit m
par DronesNetwork.car[29].mobility constraintAreaMaxY "inf m"
attr unit m
par DronesNetwork.car[29].mobility constraintAreaMaxZ "inf m"
attr unit m
par DronesNetwork.car[29].mobility initFromDisplayString true
par DronesNetwork.car[29] typename "\"dronestfg.nodes.UAV\""
par DronesNetwork.car[29] mobilityType "\"org.car2x.veins.subprojects.veins_inet.VeinsInetMobility\""
par DronesNetwork.car[34].mobility typename "\"org.car2x.veins.subprojects.veins_inet.VeinsInetMobility\""
par DronesNetwork.car[34].mobility subjectModule "\"^\""
par DronesNetwork.car[34].mobility coordinateSystemModule "\"\""
par DronesNetwork.car[34].mobility displayStringTextFormat "\"p: %p\\nv: %v\""
attr mutable ""
par DronesNetwork.car[34].mobility updateDisplayString true
par DronesNetwork.car[34].mobility constraintAreaMinX "-inf m"
attr unit m
par DronesNetwork.car[34].mobility constraintAreaMinY "-inf m"
attr unit m
par DronesNetwork.car[34].mobility constraintAreaMinZ "-inf m"
attr unit m
par DronesNetwork.car[34].mobility constraintAreaMaxX "inf m"
attr unit m
par DronesNetwork.car[34].mobility constraintAreaMaxY "inf m"
attr unit m
par DronesNetwork.car[34].mobility constraintAreaMaxZ "inf m"
attr unit m
par DronesNetwork.car[34].mobility initFromDisplayString true
par DronesNetwork.car[34] typename "\"dronestfg.nodes.UAV\""
par DronesNetwork.car[34] mobilityType "\"org.car2x.veins.subprojects.veins_inet.VeinsInetMobility\""
par DronesNetwork.car[28].mobility typename "\"org.car2x.veins.subprojects.veins_inet.VeinsInetMobility\""
par DronesNetwork.car[28].mobility subjectModule "\"^\""
par DronesNetwork.car[28].mobility coordinateSystemModule "\"\""
par DronesNetwork.car[28].mobility displayStringTextFormat "\"p: %p\\nv: %v\""
attr mutable ""
par DronesNetwork.car[28].mobility updateDisplayString true
par DronesNetwork.car[28].mobility constraintAreaMinX "-inf m"
attr unit m
par DronesNetwork.car[28].mobility constraintAreaMinY "-inf m"
attr unit m
par DronesNetwork.car[28].mobility constraintAreaMinZ "-inf m"
attr unit m
par DronesNetwork.car[28].mobility constraintAreaMaxX "inf m"
attr unit m
par DronesNetwork.car[28].mobility constraintAreaMaxY "inf m"
attr unit m
par DronesNetwork.car[28].mobility constraintAreaMaxZ "inf m"
attr unit m
par DronesNetwork.car[28].mobility initFromDisplayString true
par DronesNetwork.car[28] typename "\"dronestfg.nodes.UAV\""
par DronesNetwork.car[28] mobilityType "\"org.car2x.veins.subprojects.veins_inet.VeinsInetMobility\""
par DronesNetwork.car[33].mobility typename "\"org.car2x.veins.subprojects.veins_inet.VeinsInetMobility\""
par DronesNetwork.car[33].mobility subjectModule "\"^\""
par DronesNetwork.car[33].mobility coordinateSystemModule "\"\""
par DronesNetwork.car[33].mobility displayStringTextFormat "\"p: %p\\nv: %v\""
attr mutable ""
par DronesNetwork.car[33].mobility updateDisplayString true
par DronesNetwork.car[33].mobility constraintAreaMinX "-inf m"
attr unit m
par DronesNetwork.car[33].mobility constraintAreaMinY "-inf m"
attr unit m
par DronesNetwork.car[33].mobility constraintAreaMinZ "-inf m"
attr unit m
par DronesNetwork.car[33].mobility constraintAreaMaxX "inf m"
attr unit m
par DronesNetwork.car[33].mobility constraintAreaMaxY "inf m"
attr unit m
par DronesNetwork.car[33].mobility constraintAreaMaxZ "inf m"
attr unit m
par DronesNetwork.car[33].mobility initFromDisplayString true
par DronesNetwork.car[33] typename "\"dronestfg.nodes.UAV\""
par DronesNetwork.car[33] mobilityType "\"org.car2x.veins.subprojects.veins_inet.VeinsInetMobility\""
par DronesNetwork.car[37].mobility typename "\"org.car2x.veins.subprojects.veins_inet.VeinsInetMobility\""
par DronesNetwork.car[37].mobility subjectModule "\"^\""
par DronesNetwork.car[37].mobility coordinateSystemModule "\"\""
par DronesNetwork.car[37].mobility displayStringTextFormat "\"p: %p\\nv: %v\""
attr mutable ""
par DronesNetwork.car[37].mobility updateDisplayString true
par DronesNetwork.car[37].mobility constraintAreaMinX "-inf m"
attr unit m
par DronesNetwork.car[37].mobility constraintAreaMinY "-inf m"
attr unit m
par DronesNetwork.car[37].mobility constraintAreaMinZ "-inf m"
attr unit m
par DronesNetwork.car[37].mobility constraintAreaMaxX "inf m"
attr unit m
par DronesNetwork.car[37].mobility constraintAreaMaxY "inf m"
attr unit m
par DronesNetwork.car[37].mobility constraintAreaMaxZ "inf m"
attr unit m
par DronesNetwork.car[37].mobility initFromDisplayString true
par DronesNetwork.car[37] typename "\"dronestfg.nodes.UAV\""
par DronesNetwork.car[37] mobilityType "\"org.car2x.veins.subprojects.veins_inet.VeinsInetMobility\""
par DronesNetwork.car[21].mobility typename "\"org.car2x.veins.subprojects.veins_inet.VeinsInetMobility\""
par DronesNetwork.car[21].mobility subjectModule "\"^\""
par DronesNetwork.car[21].mobility coordinateSystemModule "\"\""
par DronesNetwork.car[21].mobility displayStringTextFormat "\"p: %p\\nv: %v\""
attr mutable ""
par DronesNetwork.car[21].mobility updateDisplayString true
par DronesNetwork.car[21].mobility constraintAreaMinX "-inf m"
attr unit m
par DronesNetwork.car[21].mobility constraintAreaMinY "-inf m"
attr unit m
par DronesNetwork.car[21].mobility constraintAreaMinZ "-inf m"
attr unit m
par DronesNetwork.car[21].mobility constraintAreaMaxX "inf m"
attr unit m
par DronesNetwork.car[21].mobility constraintAreaMaxY "inf m"
attr unit m
par DronesNetwork.car[21].mobility constraintAreaMaxZ "inf m"
attr unit m
par DronesNetwork.car[21].mobility initFromDisplayString true
par DronesNetwork.car[21] typename "\"dronestfg.nodes.UAV\""
par DronesNetwork.car[21] mobilityType "\"org.car2x.veins.subprojects.veins_inet.VeinsInetMobility\""
par DronesNetwork.car[30].mobility typename "\"org.car2x.veins.subprojects.veins_inet.VeinsInetMobility\""
par DronesNetwork.car[30].mobility subjectModule "\"^\""
par DronesNetwork.car[30].mobility coordinateSystemModule "\"\""
par DronesNetwork.car[30].mobility displayStringTextFormat "\"p: %p\\nv: %v\""
attr mutable ""
par DronesNetwork.car[30].mobility updateDisplayString true
par DronesNetwork.car[30].mobility constraintAreaMinX "-inf m"
attr unit m
par DronesNetwork.car[30].mobility constraintAreaMinY "-inf m"
attr unit m
par DronesNetwork.car[30].mobility constraintAreaMinZ "-inf m"
attr unit m
par DronesNetwork.car[30].mobility constraintAreaMaxX "inf m"
attr unit m
par DronesNetwork.car[30].mobility constraintAreaMaxY "inf m"
attr unit m
par DronesNetwork.car[30].mobility constraintAreaMaxZ "inf m"
attr unit m
par DronesNetwork.car[30].mobility initFromDisplayString true
par DronesNetwork.car[30] typename "\"dronestfg.nodes.UAV\""
par DronesNetwork.car[30] mobilityType "\"org.car2x.veins.subprojects.veins_inet.VeinsInetMobility\""
par DronesNetwork.car[22].mobility typename "\"org.car2x.veins.subprojects.veins_inet.VeinsInetMobility\""
par DronesNetwork.car[22].mobility subjectModule "\"^\""
par DronesNetwork.car[22].mobility coordinateSystemModule "\"\""
par DronesNetwork.car[22].mobility displayStringTextFormat "\"p: %p\\nv: %v\""
attr mutable ""
par DronesNetwork.car[22].mobility updateDisplayString true
par DronesNetwork.car[22].mobility constraintAreaMinX "-inf m"
attr unit m
par DronesNetwork.car[22].mobility constraintAreaMinY "-inf m"
attr unit m
par DronesNetwork.car[22].mobility constraintAreaMinZ "-inf m"
attr unit m
par DronesNetwork.car[22].mobility constraintAreaMaxX "inf m"
attr unit m
par DronesNetwork.car[22].mobility constraintAreaMaxY "inf m"
attr unit m
par DronesNetwork.car[22].mobility constraintAreaMaxZ "inf m"
attr unit m
par DronesNetwork.car[22].mobility initFromDisplayString true
par DronesNetwork.car[22] typename "\"dronestfg.nodes.UAV\""
par DronesNetwork.car[22] mobilityType "\"org.car2x.veins.subprojects.veins_inet.VeinsInetMobility\""
par DronesNetwork.car[26].mobility typename "\"org.car2x.veins.subprojects.veins_inet.VeinsInetMobility\""
par DronesNetwork.car[26].mobility subjectModule "\"^\""
par DronesNetwork.car[26].mobility coordinateSystemModule "\"\""
par DronesNetwork.car[26].mobility displayStringTextFormat "\"p: %p\\nv: %v\""
attr mutable ""
par DronesNetwork.car[26].mobility updateDisplayString true
par DronesNetwork.car[26].mobility constraintAreaMinX "-inf m"
attr unit m
par DronesNetwork.car[26].mobility constraintAreaMinY "-inf m"
attr unit m
par DronesNetwork.car[26].mobility constraintAreaMinZ "-inf m"
attr unit m
par DronesNetwork.car[26].mobility constraintAreaMaxX "inf m"
attr unit m
par DronesNetwork.car[26].mobility constraintAreaMaxY "inf m"
attr unit m
par DronesNetwork.car[26].mobility constraintAreaMaxZ "inf m"
attr unit m
par DronesNetwork.car[26].mobility initFromDisplayString true
par DronesNetwork.car[26] typename "\"dronestfg.nodes.UAV\""
par DronesNetwork.car[26] mobilityType "\"org.car2x.veins.subprojects.veins_inet.VeinsInetMobility\""
par DronesNetwork.car[40].mobility typename "\"org.car2x.veins.subprojects.veins_inet.VeinsInetMobility\""
par DronesNetwork.car[40].mobility subjectModule "\"^\""
par DronesNetwork.car[40].mobility coordinateSystemModule "\"\""
par DronesNetwork.car[40].mobility displayStringTextFormat "\"p: %p\\nv: %v\""
attr mutable ""
par DronesNetwork.car[40].mobility updateDisplayString true
par DronesNetwork.car[40].mobility constraintAreaMinX "-inf m"
attr unit m
par DronesNetwork.car[40].mobility constraintAreaMinY "-inf m"
attr unit m
par DronesNetwork.car[40].mobility constraintAreaMinZ "-inf m"
attr unit m
par DronesNetwork.car[40].mobility constraintAreaMaxX "inf m"
attr unit m
par DronesNetwork.car[40].mobility constraintAreaMaxY "inf m"
attr unit m
par DronesNetwork.car[40].mobility constraintAreaMaxZ "inf m"
attr unit m
par DronesNetwork.car[40].mobility initFromDisplayString true
par DronesNetwork.car[40] typename "\"dronestfg.nodes.UAV\""
par DronesNetwork.car[40] mobilityType "\"org.car2x.veins.subprojects.veins_inet.VeinsInetMobility\""
par DronesNetwork.car[42].mobility typename "\"org.car2x.veins.subprojects.veins_inet.VeinsInetMobility\""
par DronesNetwork.car[42].mobility subjectModule "\"^\""
par DronesNetwork.car[42].mobility coordinateSystemModule "\"\""
par DronesNetwork.car[42].mobility displayStringTextFormat "\"p: %p\\nv: %v\""
attr mutable ""
par DronesNetwork.car[42].mobility updateDisplayString true
par DronesNetwork.car[42].mobility constraintAreaMinX "-inf m"
attr unit m
par DronesNetwork.car[42].mobility constraintAreaMinY "-inf m"
attr unit m
par DronesNetwork.car[42].mobility constraintAreaMinZ "-inf m"
attr unit m
par DronesNetwork.car[42].mobility constraintAreaMaxX "inf m"
attr unit m
par DronesNetwork.car[42].mobility constraintAreaMaxY "inf m"
attr unit m
par DronesNetwork.car[42].mobility constraintAreaMaxZ "inf m"
attr unit m
par DronesNetwork.car[42].mobility initFromDisplayString true
par DronesNetwork.car[42] typename "\"dronestfg.nodes.UAV\""
par DronesNetwork.car[42] mobilityType "\"org.car2x.veins.subprojects.veins_inet.VeinsInetMobility\""
par DronesNetwork.car[36].mobility typename "\"org.car2x.veins.subprojects.veins_inet.VeinsInetMobility\""
par DronesNetwork.car[36].mobility subjectModule "\"^\""
par DronesNetwork.car[36].mobility coordinateSystemModule "\"\""
par DronesNetwork.car[36].mobility displayStringTextFormat "\"p: %p\\nv: %v\""
attr mutable ""
par DronesNetwork.car[36].mobility updateDisplayString true
par DronesNetwork.car[36].mobility constraintAreaMinX "-inf m"
attr unit m
par DronesNetwork.car[36].mobility constraintAreaMinY "-inf m"
attr unit m
par DronesNetwork.car[36].mobility constraintAreaMinZ "-inf m"
attr unit m
par DronesNetwork.car[36].mobility constraintAreaMaxX "inf m"
attr unit m
par DronesNetwork.car[36].mobility constraintAreaMaxY "inf m"
attr unit m
par DronesNetwork.car[36].mobility constraintAreaMaxZ "inf m"
attr unit m
par DronesNetwork.car[36].mobility initFromDisplayString true
par DronesNetwork.car[36] typename "\"dronestfg.nodes.UAV\""
par DronesNetwork.car[36] mobilityType "\"org.car2x.veins.subprojects.veins_inet.VeinsInetMobility\""
par DronesNetwork.car[35].mobility typename "\"org.car2x.veins.subprojects.veins_inet.VeinsInetMobility\""
par DronesNetwork.car[35].mobility subjectModule "\"^\""
par DronesNetwork.car[35].mobility coordinateSystemModule "\"\""
par DronesNetwork.car[35].mobility displayStringTextFormat "\"p: %p\\nv: %v\""
attr mutable ""
par DronesNetwork.car[35].mobility updateDisplayString true
par DronesNetwork.car[35].mobility constraintAreaMinX "-inf m"
attr unit m
par DronesNetwork.car[35].mobility constraintAreaMinY "-inf m"
attr unit m
par DronesNetwork.car[35].mobility constraintAreaMinZ "-inf m"
attr unit m
par DronesNetwork.car[35].mobility constraintAreaMaxX "inf m"
attr unit m
par DronesNetwork.car[35].mobility constraintAreaMaxY "inf m"
attr unit m
par DronesNetwork.car[35].mobility constraintAreaMaxZ "inf m"
attr unit m
par DronesNetwork.car[35].mobility initFromDisplayString true
par DronesNetwork.car[35] typename "\"dronestfg.nodes.UAV\""
par DronesNetwork.car[35] mobilityType "\"org.car2x.veins.subprojects.veins_inet.VeinsInetMobility\""
par DronesNetwork.car[38].mobility typename "\"org.car2x.veins.subprojects.veins_inet.VeinsInetMobility\""
par DronesNetwork.car[38].mobility subjectModule "\"^\""
par DronesNetwork.car[38].mobility coordinateSystemModule "\"\""
par DronesNetwork.car[38].mobility displayStringTextFormat "\"p: %p\\nv: %v\""
attr mutable ""
par DronesNetwork.car[38].mobility updateDisplayString true
par DronesNetwork.car[38].mobility constraintAreaMinX "-inf m"
attr unit m
par DronesNetwork.car[38].mobility constraintAreaMinY "-inf m"
attr unit m
par DronesNetwork.car[38].mobility constraintAreaMinZ "-inf m"
attr unit m
par DronesNetwork.car[38].mobility constraintAreaMaxX "inf m"
attr unit m
par DronesNetwork.car[38].mobility constraintAreaMaxY "inf m"
attr unit m
par DronesNetwork.car[38].mobility constraintAreaMaxZ "inf m"
attr unit m
par DronesNetwork.car[38].mobility initFromDisplayString true
par DronesNetwork.car[38] typename "\"dronestfg.nodes.UAV\""
par DronesNetwork.car[38] mobilityType "\"org.car2x.veins.subprojects.veins_inet.VeinsInetMobility\""
par DronesNetwork.car[44].mobility typename "\"org.car2x.veins.subprojects.veins_inet.VeinsInetMobility\""
par DronesNetwork.car[44].mobility subjectModule "\"^\""
par DronesNetwork.car[44].mobility coordinateSystemModule "\"\""
par DronesNetwork.car[44].mobility displayStringTextFormat "\"p: %p\\nv: %v\""
attr mutable ""
par DronesNetwork.car[44].mobility updateDisplayString true
par DronesNetwork.car[44].mobility constraintAreaMinX "-inf m"
attr unit m
par DronesNetwork.car[44].mobility constraintAreaMinY "-inf m"
attr unit m
par DronesNetwork.car[44].mobility constraintAreaMinZ "-inf m"
attr unit m
par DronesNetwork.car[44].mobility constraintAreaMaxX "inf m"
attr unit m
par DronesNetwork.car[44].mobility constraintAreaMaxY "inf m"
attr unit m
par DronesNetwork.car[44].mobility constraintAreaMaxZ "inf m"
attr unit m
par DronesNetwork.car[44].mobility initFromDisplayString true
par DronesNetwork.car[44] typename "\"dronestfg.nodes.UAV\""
par DronesNetwork.car[44] mobilityType "\"org.car2x.veins.subprojects.veins_inet.VeinsInetMobility\""
par DronesNetwork.car[49].mobility typename "\"org.car2x.veins.subprojects.veins_inet.VeinsInetMobility\""
par DronesNetwork.car[49].mobility subjectModule "\"^\""
par DronesNetwork.car[49].mobility coordinateSystemModule "\"\""
par DronesNetwork.car[49].mobility displayStringTextFormat "\"p: %p\\nv: %v\""
attr mutable ""
par DronesNetwork.car[49].mobility updateDisplayString true
par DronesNetwork.car[49].mobility constraintAreaMinX "-inf m"
attr unit m
par DronesNetwork.car[49].mobility constraintAreaMinY "-inf m"
attr unit m
par DronesNetwork.car[49].mobility constraintAreaMinZ "-inf m"
attr unit m
par DronesNetwork.car[49].mobility constraintAreaMaxX "inf m"
attr unit m
par DronesNetwork.car[49].mobility constraintAreaMaxY "inf m"
attr unit m
par DronesNetwork.car[49].mobility constraintAreaMaxZ "inf m"
attr unit m
par DronesNetwork.car[49].mobility initFromDisplayString true
par DronesNetwork.car[49] typename "\"dronestfg.nodes.UAV\""
par DronesNetwork.car[49] mobilityType "\"org.car2x.veins.subprojects.veins_inet.VeinsInetMobility\""
par DronesNetwork.car[50].mobility typename "\"org.car2x.veins.subprojects.veins_inet.VeinsInetMobility\""
par DronesNetwork.car[50].mobility subjectModule "\"^\""
par DronesNetwork.car[50].mobility coordinateSystemModule "\"\""
par DronesNetwork.car[50].mobility displayStringTextFormat "\"p: %p\\nv: %v\""
attr mutable ""
par DronesNetwork.car[50].mobility updateDisplayString true
par DronesNetwork.car[50].mobility constraintAreaMinX "-inf m"
attr unit m
par DronesNetwork.car[50].mobility constraintAreaMinY "-inf m"
attr unit m
par DronesNetwork.car[50].mobility constraintAreaMinZ "-inf m"
attr unit m
par DronesNetwork.car[50].mobility constraintAreaMaxX "inf m"
attr unit m
par DronesNetwork.car[50].mobility constraintAreaMaxY "inf m"
attr unit m
par DronesNetwork.car[50].mobility constraintAreaMaxZ "inf m"
attr unit m
par DronesNetwork.car[50].mobility initFromDisplayString true
par DronesNetwork.car[50] typename "\"dronestfg.nodes.UAV\""
par DronesNetwork.car[50] mobilityType "\"org.car2x.veins.subprojects.veins_inet.VeinsInetMobility\""
par DronesNetwork.car[27].mobility typename "\"org.car2x.veins.subprojects.veins_inet.VeinsInetMobility\""
par DronesNetwork.car[27].mobility subjectModule "\"^\""
par DronesNetwork.car[27].mobility coordinateSystemModule "\"\""
par DronesNetwork.car[27].mobility displayStringTextFormat "\"p: %p\\nv: %v\""
attr mutable ""
par DronesNetwork.car[27].mobility updateDisplayString true
par DronesNetwork.car[27].mobility constraintAreaMinX "-inf m"
attr unit m
par DronesNetwork.car[27].mobility constraintAreaMinY "-inf m"
attr unit m
par DronesNetwork.car[27].mobility constraintAreaMinZ "-inf m"
attr unit m
par DronesNetwork.car[27].mobility constraintAreaMaxX "inf m"
attr unit m
par DronesNetwork.car[27].mobility constraintAreaMaxY "inf m"
attr unit m
par DronesNetwork.car[27].mobility constraintAreaMaxZ "inf m"
attr unit m
par DronesNetwork.car[27].mobility initFromDisplayString true
par DronesNetwork.car[27] typename "\"dronestfg.nodes.UAV\""
par DronesNetwork.car[27] mobilityType "\"org.car2x.veins.subprojects.veins_inet.VeinsInetMobility\""
par DronesNetwork.car[19].mobility typename "\"org.car2x.veins.subprojects.veins_inet.VeinsInetMobility\""
par DronesNetwork.car[19].mobility subjectModule "\"^\""
par DronesNetwork.car[19].mobility coordinateSystemModule "\"\""
par DronesNetwork.car[19].mobility displayStringTextFormat "\"p: %p\\nv: %v\""
attr mutable ""
par DronesNetwork.car[19].mobility updateDisplayString true
par DronesNetwork.car[19].mobility constraintAreaMinX "-inf m"
attr unit m
par DronesNetwork.car[19].mobility constraintAreaMinY "-inf m"
attr unit m
par DronesNetwork.car[19].mobility constraintAreaMinZ "-inf m"
attr unit m
par DronesNetwork.car[19].mobility constraintAreaMaxX "inf m"
attr unit m
par DronesNetwork.car[19].mobility constraintAreaMaxY "inf m"
attr unit m
par DronesNetwork.car[19].mobility constraintAreaMaxZ "inf m"
attr unit m
par DronesNetwork.car[19].mobility initFromDisplayString true
par DronesNetwork.car[19] typename "\"dronestfg.nodes.UAV\""
par DronesNetwork.car[19] mobilityType "\"org.car2x.veins.subprojects.veins_inet.VeinsInetMobility\""
par DronesNetwork.car[39].mobility typename "\"org.car2x.veins.subprojects.veins_inet.VeinsInetMobility\""
par DronesNetwork.car[39].mobility subjectModule "\"^\""
par DronesNetwork.car[39].mobility coordinateSystemModule "\"\""
par DronesNetwork.car[39].mobility displayStringTextFormat "\"p: %p\\nv: %v\""
attr mutable ""
par DronesNetwork.car[39].mobility updateDisplayString true
par DronesNetwork.car[39].mobility constraintAreaMinX "-inf m"
attr unit m
par DronesNetwork.car[39].mobility constraintAreaMinY "-inf m"
attr unit m
par DronesNetwork.car[39].mobility constraintAreaMinZ "-inf m"
attr unit m
par DronesNetwork.car[39].mobility constraintAreaMaxX "inf m"
attr unit m
par DronesNetwork.car[39].mobility constraintAreaMaxY "inf m"
attr unit m
par DronesNetwork.car[39].mobility constraintAreaMaxZ "inf m"
attr unit m
par DronesNetwork.car[39].mobility initFromDisplayString true
par DronesNetwork.car[39] typename "\"dronestfg.nodes.UAV\""
par DronesNetwork.car[39] mobilityType "\"org.car2x.veins.subprojects.veins_inet.VeinsInetMobility\""
par DronesNetwork.car[41].mobility typename "\"org.car2x.veins.subprojects.veins_inet.VeinsInetMobility\""
par DronesNetwork.car[41].mobility subjectModule "\"^\""
par DronesNetwork.car[41].mobility coordinateSystemModule "\"\""
par DronesNetwork.car[41].mobility displayStringTextFormat "\"p: %p\\nv: %v\""
attr mutable ""
par DronesNetwork.car[41].mobility updateDisplayString true
par DronesNetwork.car[41].mobility constraintAreaMinX "-inf m"
attr unit m
par DronesNetwork.car[41].mobility constraintAreaMinY "-inf m"
attr unit m
par DronesNetwork.car[41].mobility constraintAreaMinZ "-inf m"
attr unit m
par DronesNetwork.car[41].mobility constraintAreaMaxX "inf m"
attr unit m
par DronesNetwork.car[41].mobility constraintAreaMaxY "inf m"
attr unit m
par DronesNetwork.car[41].mobility constraintAreaMaxZ "inf m"
attr unit m
par DronesNetwork.car[41].mobility initFromDisplayString true
par DronesNetwork.car[41] typename "\"dronestfg.nodes.UAV\""
par DronesNetwork.car[41] mobilityType "\"org.car2x.veins.subprojects.veins_inet.VeinsInetMobility\""
par DronesNetwork.car[25].mobility typename "\"org.car2x.veins.subprojects.veins_inet.VeinsInetMobility\""
par DronesNetwork.car[25].mobility subjectModule "\"^\""
par DronesNetwork.car[25].mobility coordinateSystemModule "\"\""
par DronesNetwork.car[25].mobility displayStringTextFormat "\"p: %p\\nv: %v\""
attr mutable ""
par DronesNetwork.car[25].mobility updateDisplayString true
par DronesNetwork.car[25].mobility constraintAreaMinX "-inf m"
attr unit m
par DronesNetwork.car[25].mobility constraintAreaMinY "-inf m"
attr unit m
par DronesNetwork.car[25].mobility constraintAreaMinZ "-inf m"
attr unit m
par DronesNetwork.car[25].mobility constraintAreaMaxX "inf m"
attr unit m
par DronesNetwork.car[25].mobility constraintAreaMaxY "inf m"
attr unit m
par DronesNetwork.car[25].mobility constraintAreaMaxZ "inf m"
attr unit m
par DronesNetwork.car[25].mobility initFromDisplayString true
par DronesNetwork.car[25] typename "\"dronestfg.nodes.UAV\""
par DronesNetwork.car[25] mobilityType "\"org.car2x.veins.subprojects.veins_inet.VeinsInetMobility\""
par DronesNetwork.car[46].mobility typename "\"org.car2x.veins.subprojects.veins_inet.VeinsInetMobility\""
par DronesNetwork.car[46].mobility subjectModule "\"^\""
par DronesNetwork.car[46].mobility coordinateSystemModule "\"\""
par DronesNetwork.car[46].mobility displayStringTextFormat "\"p: %p\\nv: %v\""
attr mutable ""
par DronesNetwork.car[46].mobility updateDisplayString true
par DronesNetwork.car[46].mobility constraintAreaMinX "-inf m"
attr unit m
par DronesNetwork.car[46].mobility constraintAreaMinY "-inf m"
attr unit m
par DronesNetwork.car[46].mobility constraintAreaMinZ "-inf m"
attr unit m
par DronesNetwork.car[46].mobility constraintAreaMaxX "inf m"
attr unit m
par DronesNetwork.car[46].mobility constraintAreaMaxY "inf m"
attr unit m
par DronesNetwork.car[46].mobility constraintAreaMaxZ "inf m"
attr unit m
par DronesNetwork.car[46].mobility initFromDisplayString true
par DronesNetwork.car[46] typename "\"dronestfg.nodes.UAV\""
par DronesNetwork.car[46] mobilityType "\"org.car2x.veins.subprojects.veins_inet.VeinsInetMobility\""
par DronesNetwork.car[17].mobility typename "\"org.car2x.veins.subprojects.veins_inet.VeinsInetMobility\""
par DronesNetwork.car[17].mobility subjectModule "\"^\""
par DronesNetwork.car[17].mobility coordinateSystemModule "\"\""
par DronesNetwork.car[17].mobility displayStringTextFormat "\"p: %p\\nv: %v\""
attr mutable ""
par DronesNetwork.car[17].mobility updateDisplayString true
par DronesNetwork.car[17].mobility constraintAreaMinX "-inf m"
attr unit m
par DronesNetwork.car[17].mobility constraintAreaMinY "-inf m"
attr unit m
par DronesNetwork.car[17].mobility constraintAreaMinZ "-inf m"
attr unit m
par DronesNetwork.car[17].mobility constraintAreaMaxX "inf m"
attr unit m
par DronesNetwork.car[17].mobility constraintAreaMaxY "inf m"
attr unit m
par DronesNetwork.car[17].mobility constraintAreaMaxZ "inf m"
attr unit m
par DronesNetwork.car[17].mobility initFromDisplayString true
par DronesNetwork.car[17] typename "\"dronestfg.nodes.UAV\""
par DronesNetwork.car[17] mobilityType "\"org.car2x.veins.subprojects.veins_inet.VeinsInetMobility\""
par DronesNetwork.car[52].mobility typename "\"org.car2x.veins.subprojects.veins_inet.VeinsInetMobility\""
par DronesNetwork.car[52].mobility subjectModule "\"^\""
par DronesNetwork.car[52].mobility coordinateSystemModule "\"\""
par DronesNetwork.car[52].mobility displayStringTextFormat "\"p: %p\\nv: %v\""
attr mutable ""
par DronesNetwork.car[52].mobility updateDisplayString true
par DronesNetwork.car[52].mobility constraintAreaMinX "-inf m"
attr unit m
par DronesNetwork.car[52].mobility constraintAreaMinY "-inf m"
attr unit m
par DronesNetwork.car[52].mobility constraintAreaMinZ "-inf m"
attr unit m
par DronesNetwork.car[52].mobility constraintAreaMaxX "inf m"
attr unit m
par DronesNetwork.car[52].mobility constraintAreaMaxY "inf m"
attr unit m
par DronesNetwork.car[52].mobility constraintAreaMaxZ "inf m"
attr unit m
par DronesNetwork.car[52].mobility initFromDisplayString true
par DronesNetwork.car[52] typename "\"dronestfg.nodes.UAV\""
par DronesNetwork.car[52] mobilityType "\"org.car2x.veins.subprojects.veins_inet.VeinsInetMobility\""
par DronesNetwork.car[20].mobility typename "\"org.car2x.veins.subprojects.veins_inet.VeinsInetMobility\""
par DronesNetwork.car[20].mobility subjectModule "\"^\""
par DronesNetwork.car[20].mobility coordinateSystemModule "\"\""
par DronesNetwork.car[20].mobility displayStringTextFormat "\"p: %p\\nv: %v\""
attr mutable ""
par DronesNetwork.car[20].mobility updateDisplayString true
par DronesNetwork.car[20].mobility constraintAreaMinX "-inf m"
attr unit m
par DronesNetwork.car[20].mobility constraintAreaMinY "-inf m"
attr unit m
par DronesNetwork.car[20].mobility constraintAreaMinZ "-inf m"
attr unit m
par DronesNetwork.car[20].mobility constraintAreaMaxX "inf m"
attr unit m
par DronesNetwork.car[20].mobility constraintAreaMaxY "inf m"
attr unit m
par DronesNetwork.car[20].mobility constraintAreaMaxZ "inf m"
attr unit m
par DronesNetwork.car[20].mobility initFromDisplayString true
par DronesNetwork.car[20] typename "\"dronestfg.nodes.UAV\""
par DronesNetwork.car[20] mobilityType "\"org.car2x.veins.subprojects.veins_inet.VeinsInetMobility\""
par DronesNetwork.car[60].mobility typename "\"org.car2x.veins.subprojects.veins_inet.VeinsInetMobility\""
par DronesNetwork.car[60].mobility subjectModule "\"^\""
par DronesNetwork.car[60].mobility coordinateSystemModule "\"\""
par DronesNetwork.car[60].mobility displayStringTextFormat "\"p: %p\\nv: %v\""
attr mutable ""
par DronesNetwork.car[60].mobility updateDisplayString true
par DronesNetwork.car[60].mobility constraintAreaMinX "-inf m"
attr unit m
par DronesNetwork.car[60].mobility constraintAreaMinY "-inf m"
attr unit m
par DronesNetwork.car[60].mobility constraintAreaMinZ "-inf m"
attr unit m
par DronesNetwork.car[60].mobility constraintAreaMaxX "inf m"
attr unit m
par DronesNetwork.car[60].mobility constraintAreaMaxY "inf m"
attr unit m
par DronesNetwork.car[60].mobility constraintAreaMaxZ "inf m"
attr unit m
par DronesNetwork.car[60].mobility initFromDisplayString true
par DronesNetwork.car[60] typename "\"dronestfg.nodes.UAV\""
par DronesNetwork.car[60] mobilityType "\"org.car2x.veins.subprojects.veins_inet.VeinsInetMobility\""
par DronesNetwork.car[23].mobility typename "\"org.car2x.veins.subprojects.veins_inet.VeinsInetMobility\""
par DronesNetwork.car[23].mobility subjectModule "\"^\""
par DronesNetwork.car[23].mobility coordinateSystemModule "\"\""
par DronesNetwork.car[23].mobility displayStringTextFormat "\"p: %p\\nv: %v\""
attr mutable ""
par DronesNetwork.car[23].mobility updateDisplayString true
par DronesNetwork.car[23].mobility constraintAreaMinX "-inf m"
attr unit m
par DronesNetwork.car[23].mobility constraintAreaMinY "-inf m"
attr unit m
par DronesNetwork.car[23].mobility constraintAreaMinZ "-inf m"
attr unit m
par DronesNetwork.car[23].mobility constraintAreaMaxX "inf m"
attr unit m
par DronesNetwork.car[23].mobility constraintAreaMaxY "inf m"
attr unit m
par DronesNetwork.car[23].mobility constraintAreaMaxZ "inf m"
attr unit m
par DronesNetwork.car[23].mobility initFromDisplayString true
par DronesNetwork.car[23] typename "\"dronestfg.nodes.UAV\""
par DronesNetwork.car[23] mobilityType "\"org.car2x.veins.subprojects.veins_inet.VeinsInetMobility\""
par DronesNetwork.car[55].mobility typename "\"org.car2x.veins.subprojects.veins_inet.VeinsInetMobility\""
par DronesNetwork.car[55].mobility subjectModule "\"^\""
par DronesNetwork.car[55].mobility coordinateSystemModule "\"\""
par DronesNetwork.car[55].mobility displayStringTextFormat "\"p: %p\\nv: %v\""
attr mutable ""
par DronesNetwork.car[55].mobility updateDisplayString true
par DronesNetwork.car[55].mobility constraintAreaMinX "-inf m"
attr unit m
par DronesNetwork.car[55].mobility constraintAreaMinY "-inf m"
attr unit m
par DronesNetwork.car[55].mobility constraintAreaMinZ "-inf m"
attr unit m
par DronesNetwork.car[55].mobility constraintAreaMaxX "inf m"
attr unit m
par DronesNetwork.car[55].mobility constraintAreaMaxY "inf m"
attr unit m
par DronesNetwork.car[55].mobility constraintAreaMaxZ "inf m"
attr unit m
par DronesNetwork.car[55].mobility initFromDisplayString true
par DronesNetwork.car[55] typename "\"dronestfg.nodes.UAV\""
par DronesNetwork.car[55] mobilityType "\"org.car2x.veins.subprojects.veins_inet.VeinsInetMobility\""
par DronesNetwork.car[32].mobility typename "\"org.car2x.veins.subprojects.veins_inet.VeinsInetMobility\""
par DronesNetwork.car[32].mobility subjectModule "\"^\""
par DronesNetwork.car[32].mobility coordinateSystemModule "\"\""
par DronesNetwork.car[32].mobility displayStringTextFormat "\"p: %p\\nv: %v\""
attr mutable ""
par DronesNetwork.car[32].mobility updateDisplayString true
par DronesNetwork.car[32].mobility constraintAreaMinX "-inf m"
attr unit m
par DronesNetwork.car[32].mobility constraintAreaMinY "-inf m"
attr unit m
par DronesNetwork.car[32].mobility constraintAreaMinZ "-inf m"
attr unit m
par DronesNetwork.car[32].mobility constraintAreaMaxX "inf m"
attr unit m
par DronesNetwork.car[32].mobility constraintAreaMaxY "inf m"
attr unit m
par DronesNetwork.car[32].mobility constraintAreaMaxZ "inf m"
attr unit m
par DronesNetwork.car[32].mobility initFromDisplayString true
par DronesNetwork.car[32] typename "\"dronestfg.nodes.UAV\""
par DronesNetwork.car[32] mobilityType "\"org.car2x.veins.subprojects.veins_inet.VeinsInetMobility\""
par DronesNetwork.car[62].mobility typename "\"org.car2x.veins.subprojects.veins_inet.VeinsInetMobility\""
par DronesNetwork.car[62].mobility subjectModule "\"^\""
par DronesNetwork.car[62].mobility coordinateSystemModule "\"\""
par DronesNetwork.car[62].mobility displayStringTextFormat "\"p: %p\\nv: %v\""
attr mutable ""
par DronesNetwork.car[62].mobility updateDisplayString true
par DronesNetwork.car[62].mobility constraintAreaMinX "-inf m"
attr unit m
par DronesNetwork.car[62].mobility constraintAreaMinY "-inf m"
attr unit m
par DronesNetwork.car[62].mobility constraintAreaMinZ "-inf m"
attr unit m
par DronesNetwork.car[62].mobility constraintAreaMaxX "inf m"
attr unit m
par DronesNetwork.car[62].mobility constraintAreaMaxY "inf m"
attr unit m
par DronesNetwork.car[62].mobility constraintAreaMaxZ "inf m"
attr unit m
par DronesNetwork.car[62].mobility initFromDisplayString true
par DronesNetwork.car[62] typename "\"dronestfg.nodes.UAV\""
par DronesNetwork.car[62] mobilityType "\"org.car2x.veins.subprojects.veins_inet.VeinsInetMobility\""
par DronesNetwork.car[56].mobility typename "\"org.car2x.veins.subprojects.veins_inet.VeinsInetMobility\""
par DronesNetwork.car[56].mobility subjectModule "\"^\""
par DronesNetwork.car[56].mobility coordinateSystemModule "\"\""
par DronesNetwork.car[56].mobility displayStringTextFormat "\"p: %p\\nv: %v\""
attr mutable ""
par DronesNetwork.car[56].mobility updateDisplayString true
par DronesNetwork.car[56].mobility constraintAreaMinX "-inf m"
attr unit m
par DronesNetwork.car[56].mobility constraintAreaMinY "-inf m"
attr unit m
par DronesNetwork.car[56].mobility constraintAreaMinZ "-inf m"
attr unit m
par DronesNetwork.car[56].mobility constraintAreaMaxX "inf m"
attr unit m
par DronesNetwork.car[56].mobility constraintAreaMaxY "inf m"
attr unit m
par DronesNetwork.car[56].mobility constraintAreaMaxZ "inf m"
attr unit m
par DronesNetwork.car[56].mobility initFromDisplayString true
par DronesNetwork.car[56] typename "\"dronestfg.nodes.UAV\""
par DronesNetwork.car[56] mobilityType "\"org.car2x.veins.subprojects.veins_inet.VeinsInetMobility\""
par DronesNetwork.car[47].mobility typename "\"org.car2x.veins.subprojects.veins_inet.VeinsInetMobility\""
par DronesNetwork.car[47].mobility subjectModule "\"^\""
par DronesNetwork.car[47].mobility coordinateSystemModule "\"\""
par DronesNetwork.car[47].mobility displayStringTextFormat "\"p: %p\\nv: %v\""
attr mutable ""
par DronesNetwork.car[47].mobility updateDisplayString true
par DronesNetwork.car[47].mobility constraintAreaMinX "-inf m"
attr unit m
par DronesNetwork.car[47].mobility constraintAreaMinY "-inf m"
attr unit m
par DronesNetwork.car[47].mobility constraintAreaMinZ "-inf m"
attr unit m
par DronesNetwork.car[47].mobility constraintAreaMaxX "inf m"
attr unit m
par DronesNetwork.car[47].mobility constraintAreaMaxY "inf m"
attr unit m
par DronesNetwork.car[47].mobility constraintAreaMaxZ "inf m"
attr unit m
par DronesNetwork.car[47].mobility initFromDisplayString true
par DronesNetwork.car[47] typename "\"dronestfg.nodes.UAV\""
par DronesNetwork.car[47] mobilityType "\"org.car2x.veins.subprojects.veins_inet.VeinsInetMobility\""
par DronesNetwork.car[53].mobility typename "\"org.car2x.veins.subprojects.veins_inet.VeinsInetMobility\""
par DronesNetwork.car[53].mobility subjectModule "\"^\""
par DronesNetwork.car[53].mobility coordinateSystemModule "\"\""
par DronesNetwork.car[53].mobility displayStringTextFormat "\"p: %p\\nv: %v\""
attr mutable ""
par DronesNetwork.car[53].mobility updateDisplayString true
par DronesNetwork.car[53].mobility constraintAreaMinX "-inf m"
attr unit m
par DronesNetwork.car[53].mobility constraintAreaMinY "-inf m"
attr unit m
par DronesNetwork.car[53].mobility constraintAreaMinZ "-inf m"
attr unit m
par DronesNetwork.car[53].mobility constraintAreaMaxX "inf m"
attr unit m
par DronesNetwork.car[53].mobility constraintAreaMaxY "inf m"
attr unit m
par DronesNetwork.car[53].mobility constraintAreaMaxZ "inf m"
attr unit m
par DronesNetwork.car[53].mobility initFromDisplayString true
par DronesNetwork.car[53] typename "\"dronestfg.nodes.UAV\""
par DronesNetwork.car[53] mobilityType "\"org.car2x.veins.subprojects.veins_inet.VeinsInetMobility\""
par DronesNetwork.car[58].mobility typename "\"org.car2x.veins.subprojects.veins_inet.VeinsInetMobility\""
par DronesNetwork.car[58].mobility subjectModule "\"^\""
par DronesNetwork.car[58].mobility coordinateSystemModule "\"\""
par DronesNetwork.car[58].mobility displayStringTextFormat "\"p: %p\\nv: %v\""
attr mutable ""
par DronesNetwork.car[58].mobility updateDisplayString true
par DronesNetwork.car[58].mobility constraintAreaMinX "-inf m"
attr unit m
par DronesNetwork.car[58].mobility constraintAreaMinY "-inf m"
attr unit m
par DronesNetwork.car[58].mobility constraintAreaMinZ "-inf m"
attr unit m
par DronesNetwork.car[58].mobility constraintAreaMaxX "inf m"
attr unit m
par DronesNetwork.car[58].mobility constraintAreaMaxY "inf m"
attr unit m
par DronesNetwork.car[58].mobility constraintAreaMaxZ "inf m"
attr unit m
par DronesNetwork.car[58].mobility initFromDisplayString true
par DronesNetwork.car[58] typename "\"dronestfg.nodes.UAV\""
par DronesNetwork.car[58] mobilityType "\"org.car2x.veins.subprojects.veins_inet.VeinsInetMobility\""
par DronesNetwork.car[59].mobility typename "\"org.car2x.veins.subprojects.veins_inet.VeinsInetMobility\""
par DronesNetwork.car[59].mobility subjectModule "\"^\""
par DronesNetwork.car[59].mobility coordinateSystemModule "\"\""
par DronesNetwork.car[59].mobility displayStringTextFormat "\"p: %p\\nv: %v\""
attr mutable ""
par DronesNetwork.car[59].mobility updateDisplayString true
par DronesNetwork.car[59].mobility constraintAreaMinX "-inf m"
attr unit m
par DronesNetwork.car[59].mobility constraintAreaMinY "-inf m"
attr unit m
par DronesNetwork.car[59].mobility constraintAreaMinZ "-inf m"
attr unit m
par DronesNetwork.car[59].mobility constraintAreaMaxX "inf m"
attr unit m
par DronesNetwork.car[59].mobility constraintAreaMaxY "inf m"
attr unit m
par DronesNetwork.car[59].mobility constraintAreaMaxZ "inf m"
attr unit m
par DronesNetwork.car[59].mobility initFromDisplayString true
par DronesNetwork.car[59] typename "\"dronestfg.nodes.UAV\""
par DronesNetwork.car[59] mobilityType "\"org.car2x.veins.subprojects.veins_inet.VeinsInetMobility\""
par DronesNetwork.car[63].mobility typename "\"org.car2x.veins.subprojects.veins_inet.VeinsInetMobility\""
par DronesNetwork.car[63].mobility subjectModule "\"^\""
par DronesNetwork.car[63].mobility coordinateSystemModule "\"\""
par DronesNetwork.car[63].mobility displayStringTextFormat "\"p: %p\\nv: %v\""
attr mutable ""
par DronesNetwork.car[63].mobility updateDisplayString true
par DronesNetwork.car[63].mobility constraintAreaMinX "-inf m"
attr unit m
par DronesNetwork.car[63].mobility constraintAreaMinY "-inf m"
attr unit m
par DronesNetwork.car[63].mobility constraintAreaMinZ "-inf m"
attr unit m
par DronesNetwork.car[63].mobility constraintAreaMaxX "inf m"
attr unit m
par DronesNetwork.car[63].mobility constraintAreaMaxY "inf m"
attr unit m
par DronesNetwork.car[63].mobility constraintAreaMaxZ "inf m"
attr unit m
par DronesNetwork.car[63].mobility initFromDisplayString true
par DronesNetwork.car[63] typename "\"dronestfg.nodes.UAV\""
par DronesNetwork.car[63] mobilityType "\"org.car2x.veins.subprojects.veins_inet.VeinsInetMobility\""
par DronesNetwork.car[54].mobility typename "\"org.car2x.veins.subprojects.veins_inet.VeinsInetMobility\""
par DronesNetwork.car[54].mobility subjectModule "\"^\""
par DronesNetwork.car[54].mobility coordinateSystemModule "\"\""
par DronesNetwork.car[54].mobility displayStringTextFormat "\"p: %p\\nv: %v\""
attr mutable ""
par DronesNetwork.car[54].mobility updateDisplayString true
par DronesNetwork.car[54].mobility constraintAreaMinX "-inf m"
attr unit m
par DronesNetwork.car[54].mobility constraintAreaMinY "-inf m"
attr unit m
par DronesNetwork.car[54].mobility constraintAreaMinZ "-inf m"
attr unit m
par DronesNetwork.car[54].mobility constraintAreaMaxX "inf m"
attr unit m
par DronesNetwork.car[54].mobility constraintAreaMaxY "inf m"
attr unit m
par DronesNetwork.car[54].mobility constraintAreaMaxZ "inf m"
attr unit m
par DronesNetwork.car[54].mobility initFromDisplayString true
par DronesNetwork.car[54] typename "\"dronestfg.nodes.UAV\""
par DronesNetwork.car[54] mobilityType "\"org.car2x.veins.subprojects.veins_inet.VeinsInetMobility\""
par DronesNetwork.car[64].mobility typename "\"org.car2x.veins.subprojects.veins_inet.VeinsInetMobility\""
par DronesNetwork.car[64].mobility subjectModule "\"^\""
par DronesNetwork.car[64].mobility coordinateSystemModule "\"\""
par DronesNetwork.car[64].mobility displayStringTextFormat "\"p: %p\\nv: %v\""
attr mutable ""
par DronesNetwork.car[64].mobility updateDisplayString true
par DronesNetwork.car[64].mobility constraintAreaMinX "-inf m"
attr unit m
par DronesNetwork.car[64].mobility constraintAreaMinY "-inf m"
attr unit m
par DronesNetwork.car[64].mobility constraintAreaMinZ "-inf m"
attr unit m
par DronesNetwork.car[64].mobility constraintAreaMaxX "inf m"
attr unit m
par DronesNetwork.car[64].mobility constraintAreaMaxY "inf m"
attr unit m
par DronesNetwork.car[64].mobility constraintAreaMaxZ "inf m"
attr unit m
par DronesNetwork.car[64].mobility initFromDisplayString true
par DronesNetwork.car[64] typename "\"dronestfg.nodes.UAV\""
par DronesNetwork.car[64] mobilityType "\"org.car2x.veins.subprojects.veins_inet.VeinsInetMobility\""
par DronesNetwork.car[43].mobility typename "\"org.car2x.veins.subprojects.veins_inet.VeinsInetMobility\""
par DronesNetwork.car[43].mobility subjectModule "\"^\""
par DronesNetwork.car[43].mobility coordinateSystemModule "\"\""
par DronesNetwork.car[43].mobility displayStringTextFormat "\"p: %p\\nv: %v\""
attr mutable ""
par DronesNetwork.car[43].mobility updateDisplayString true
par DronesNetwork.car[43].mobility constraintAreaMinX "-inf m"
attr unit m
par DronesNetwork.car[43].mobility constraintAreaMinY "-inf m"
attr unit m
par DronesNetwork.car[43].mobility constraintAreaMinZ "-inf m"
attr unit m
par DronesNetwork.car[43].mobility constraintAreaMaxX "inf m"
attr unit m
par DronesNetwork.car[43].mobility constraintAreaMaxY "inf m"
attr unit m
par DronesNetwork.car[43].mobility constraintAreaMaxZ "inf m"
attr unit m
par DronesNetwork.car[43].mobility initFromDisplayString true
par DronesNetwork.car[43] typename "\"dronestfg.nodes.UAV\""
par DronesNetwork.car[43] mobilityType "\"org.car2x.veins.subprojects.veins_inet.VeinsInetMobility\""
par DronesNetwork.car[45].mobility typename "\"org.car2x.veins.subprojects.veins_inet.VeinsInetMobility\""
par DronesNetwork.car[45].mobility subjectModule "\"^\""
par DronesNetwork.car[45].mobility coordinateSystemModule "\"\""
par DronesNetwork.car[45].mobility displayStringTextFormat "\"p: %p\\nv: %v\""
attr mutable ""
par DronesNetwork.car[45].mobility updateDisplayString true
par DronesNetwork.car[45].mobility constraintAreaMinX "-inf m"
attr unit m
par DronesNetwork.car[45].mobility constraintAreaMinY "-inf m"
attr unit m
par DronesNetwork.car[45].mobility constraintAreaMinZ "-inf m"
attr unit m
par DronesNetwork.car[45].mobility constraintAreaMaxX "inf m"
attr unit m
par DronesNetwork.car[45].mobility constraintAreaMaxY "inf m"
attr unit m
par DronesNetwork.car[45].mobility constraintAreaMaxZ "inf m"
attr unit m
par DronesNetwork.car[45].mobility initFromDisplayString true
par DronesNetwork.car[45] typename "\"dronestfg.nodes.UAV\""
par DronesNetwork.car[45] mobilityType "\"org.car2x.veins.subprojects.veins_inet.VeinsInetMobility\""
par DronesNetwork.car[51].mobility typename "\"org.car2x.veins.subprojects.veins_inet.VeinsInetMobility\""
par DronesNetwork.car[51].mobility subjectModule "\"^\""
par DronesNetwork.car[51].mobility coordinateSystemModule "\"\""
par DronesNetwork.car[51].mobility displayStringTextFormat "\"p: %p\\nv: %v\""
attr mutable ""
par DronesNetwork.car[51].mobility updateDisplayString true
par DronesNetwork.car[51].mobility constraintAreaMinX "-inf m"
attr unit m
par DronesNetwork.car[51].mobility constraintAreaMinY "-inf m"
attr unit m
par DronesNetwork.car[51].mobility constraintAreaMinZ "-inf m"
attr unit m
par DronesNetwork.car[51].mobility constraintAreaMaxX "inf m"
attr unit m
par DronesNetwork.car[51].mobility constraintAreaMaxY "inf m"
attr unit m
par DronesNetwork.car[51].mobility constraintAreaMaxZ "inf m"
attr unit m
par DronesNetwork.car[51].mobility initFromDisplayString true
par DronesNetwork.car[51] typename "\"dronestfg.nodes.UAV\""
par DronesNetwork.car[51] mobilityType "\"org.car2x.veins.subprojects.veins_inet.VeinsInetMobility\""
par DronesNetwork.car[69].mobility typename "\"org.car2x.veins.subprojects.veins_inet.VeinsInetMobility\""
par DronesNetwork.car[69].mobility subjectModule "\"^\""
par DronesNetwork.car[69].mobility coordinateSystemModule "\"\""
par DronesNetwork.car[69].mobility displayStringTextFormat "\"p: %p\\nv: %v\""
attr mutable ""
par DronesNetwork.car[69].mobility updateDisplayString true
par DronesNetwork.car[69].mobility constraintAreaMinX "-inf m"
attr unit m
par DronesNetwork.car[69].mobility constraintAreaMinY "-inf m"
attr unit m
par DronesNetwork.car[69].mobility constraintAreaMinZ "-inf m"
attr unit m
par DronesNetwork.car[69].mobility constraintAreaMaxX "inf m"
attr unit m
par DronesNetwork.car[69].mobility constraintAreaMaxY "inf m"
attr unit m
par DronesNetwork.car[69].mobility constraintAreaMaxZ "inf m"
attr unit m
par DronesNetwork.car[69].mobility initFromDisplayString true
par DronesNetwork.car[69] typename "\"dronestfg.nodes.UAV\""
par DronesNetwork.car[69] mobilityType "\"org.car2x.veins.subprojects.veins_inet.VeinsInetMobility\""
par DronesNetwork.car[73].mobility typename "\"org.car2x.veins.subprojects.veins_inet.VeinsInetMobility\""
par DronesNetwork.car[73].mobility subjectModule "\"^\""
par DronesNetwork.car[73].mobility coordinateSystemModule "\"\""
par DronesNetwork.car[73].mobility displayStringTextFormat "\"p: %p\\nv: %v\""
attr mutable ""
par DronesNetwork.car[73].mobility updateDisplayString true
par DronesNetwork.car[73].mobility constraintAreaMinX "-inf m"
attr unit m
par DronesNetwork.car[73].mobility constraintAreaMinY "-inf m"
attr unit m
par DronesNetwork.car[73].mobility constraintAreaMinZ "-inf m"
attr unit m
par DronesNetwork.car[73].mobility constraintAreaMaxX "inf m"
attr unit m
par DronesNetwork.car[73].mobility constraintAreaMaxY "inf m"
attr unit m
par DronesNetwork.car[73].mobility constraintAreaMaxZ "inf m"
attr unit m
par DronesNetwork.car[73].mobility initFromDisplayString true
par DronesNetwork.car[73] typename "\"dronestfg.nodes.UAV\""
par DronesNetwork.car[73] mobilityType "\"org.car2x.veins.subprojects.veins_inet.VeinsInetMobility\""
par DronesNetwork.car[65].mobility typename "\"org.car2x.veins.subprojects.veins_inet.VeinsInetMobility\""
par DronesNetwork.car[65].mobility subjectModule "\"^\""
par DronesNetwork.car[65].mobility coordinateSystemModule "\"\""
par DronesNetwork.car[65].mobility displayStringTextFormat "\"p: %p\\nv: %v\""
attr mutable ""
par DronesNetwork.car[65].mobility updateDisplayString true
par DronesNetwork.car[65].mobility constraintAreaMinX "-inf m"
attr unit m
par DronesNetwork.car[65].mobility constraintAreaMinY "-inf m"
attr unit m
par DronesNetwork.car[65].mobility constraintAreaMinZ "-inf m"
attr unit m
par DronesNetwork.car[65].mobility constraintAreaMaxX "inf m"
attr unit m
par DronesNetwork.car[65].mobility constraintAreaMaxY "inf m"
attr unit m
par DronesNetwork.car[65].mobility constraintAreaMaxZ "inf m"
attr unit m
par DronesNetwork.car[65].mobility initFromDisplayString true
par DronesNetwork.car[65] typename "\"dronestfg.nodes.UAV\""
par DronesNetwork.car[65] mobilityType "\"org.car2x.veins.subprojects.veins_inet.VeinsInetMobility\""
par DronesNetwork.car[76].mobility typename "\"org.car2x.veins.subprojects.veins_inet.VeinsInetMobility\""
par DronesNetwork.car[76].mobility subjectModule "\"^\""
par DronesNetwork.car[76].mobility coordinateSystemModule "\"\""
par DronesNetwork.car[76].mobility displayStringTextFormat "\"p: %p\\nv: %v\""
attr mutable ""
par DronesNetwork.car[76].mobility updateDisplayString true
par DronesNetwork.car[76].mobility constraintAreaMinX "-inf m"
attr unit m
par DronesNetwork.car[76].mobility constraintAreaMinY "-inf m"
attr unit m
par DronesNetwork.car[76].mobility constraintAreaMinZ "-inf m"
attr unit m
par DronesNetwork.car[76].mobility constraintAreaMaxX "inf m"
attr unit m
par DronesNetwork.car[76].mobility constraintAreaMaxY "inf m"
attr unit m
par DronesNetwork.car[76].mobility constraintAreaMaxZ "inf m"
attr unit m
par DronesNetwork.car[76].mobility initFromDisplayString true
par DronesNetwork.car[76] typename "\"dronestfg.nodes.UAV\""
par DronesNetwork.car[76] mobilityType "\"org.car2x.veins.subprojects.veins_inet.VeinsInetMobility\""
par DronesNetwork.car[24].mobility typename "\"org.car2x.veins.subprojects.veins_inet.VeinsInetMobility\""
par DronesNetwork.car[24].mobility subjectModule "\"^\""
par DronesNetwork.car[24].mobility coordinateSystemModule "\"\""
par DronesNetwork.car[24].mobility displayStringTextFormat "\"p: %p\\nv: %v\""
attr mutable ""
par DronesNetwork.car[24].mobility updateDisplayString true
par DronesNetwork.car[24].mobility constraintAreaMinX "-inf m"
attr unit m
par DronesNetwork.car[24].mobility constraintAreaMinY "-inf m"
attr unit m
par DronesNetwork.car[24].mobility constraintAreaMinZ "-inf m"
attr unit m
par DronesNetwork.car[24].mobility constraintAreaMaxX "inf m"
attr unit m
par DronesNetwork.car[24].mobility constraintAreaMaxY "inf m"
attr unit m
par DronesNetwork.car[24].mobility constraintAreaMaxZ "inf m"
attr unit m
par DronesNetwork.car[24].mobility initFromDisplayString true
par DronesNetwork.car[24] typename "\"dronestfg.nodes.UAV\""
par DronesNetwork.car[24] mobilityType "\"org.car2x.veins.subprojects.veins_inet.VeinsInetMobility\""
par DronesNetwork.car[67].mobility typename "\"org.car2x.veins.subprojects.veins_inet.VeinsInetMobility\""
par DronesNetwork.car[67].mobility subjectModule "\"^\""
par DronesNetwork.car[67].mobility coordinateSystemModule "\"\""
par DronesNetwork.car[67].mobility displayStringTextFormat "\"p: %p\\nv: %v\""
attr mutable ""
par DronesNetwork.car[67].mobility updateDisplayString true
par DronesNetwork.car[67].mobility constraintAreaMinX "-inf m"
attr unit m
par DronesNetwork.car[67].mobility constraintAreaMinY "-inf m"
attr unit m
par DronesNetwork.car[67].mobility constraintAreaMinZ "-inf m"
attr unit m
par DronesNetwork.car[67].mobility constraintAreaMaxX "inf m"
attr unit m
par DronesNetwork.car[67].mobility constraintAreaMaxY "inf m"
attr unit m
par DronesNetwork.car[67].mobility constraintAreaMaxZ "inf m"
attr unit m
par DronesNetwork.car[67].mobility initFromDisplayString true
par DronesNetwork.car[67] typename "\"dronestfg.nodes.UAV\""
par DronesNetwork.car[67] mobilityType "\"org.car2x.veins.subprojects.veins_inet.VeinsInetMobility\""
par DronesNetwork.car[77].mobility typename "\"org.car2x.veins.subprojects.veins_inet.VeinsInetMobility\""
par DronesNetwork.car[77].mobility subjectModule "\"^\""
par DronesNetwork.car[77].mobility coordinateSystemModule "\"\""
par DronesNetwork.car[77].mobility displayStringTextFormat "\"p: %p\\nv: %v\""
attr mutable ""
par DronesNetwork.car[77].mobility updateDisplayString true
par DronesNetwork.car[77].mobility constraintAreaMinX "-inf m"
attr unit m
par DronesNetwork.car[77].mobility constraintAreaMinY "-inf m"
attr unit m
par DronesNetwork.car[77].mobility constraintAreaMinZ "-inf m"
attr unit m
par DronesNetwork.car[77].mobility constraintAreaMaxX "inf m"
attr unit m
par DronesNetwork.car[77].mobility constraintAreaMaxY "inf m"
attr unit m
par DronesNetwork.car[77].mobility constraintAreaMaxZ "inf m"
attr unit m
par DronesNetwork.car[77].mobility initFromDisplayString true
par DronesNetwork.car[77] typename "\"dronestfg.nodes.UAV\""
par DronesNetwork.car[77] mobilityType "\"org.car2x.veins.subprojects.veins_inet.VeinsInetMobility\""
par DronesNetwork.car[72].mobility typename "\"org.car2x.veins.subprojects.veins_inet.VeinsInetMobility\""
par DronesNetwork.car[72].mobility subjectModule "\"^\""
par DronesNetwork.car[72].mobility coordinateSystemModule "\"\""
par DronesNetwork.car[72].mobility displayStringTextFormat "\"p: %p\\nv: %v\""
attr mutable ""
par DronesNetwork.car[72].mobility updateDisplayString true
par DronesNetwork.car[72].mobility constraintAreaMinX "-inf m"
attr unit m
par DronesNetwork.car[72].mobility constraintAreaMinY "-inf m"
attr unit m
par DronesNetwork.car[72].mobility constraintAreaMinZ "-inf m"
attr unit m
par DronesNetwork.car[72].mobility constraintAreaMaxX "inf m"
attr unit m
par DronesNetwork.car[72].mobility constraintAreaMaxY "inf m"
attr unit m
par DronesNetwork.car[72].mobility constraintAreaMaxZ "inf m"
attr unit m
par DronesNetwork.car[72].mobility initFromDisplayString true
par DronesNetwork.car[72] typename "\"dronestfg.nodes.UAV\""
par DronesNetwork.car[72] mobilityType "\"org.car2x.veins.subprojects.veins_inet.VeinsInetMobility\""
par DronesNetwork.car[48].mobility typename "\"org.car2x.veins.subprojects.veins_inet.VeinsInetMobility\""
par DronesNetwork.car[48].mobility subjectModule "\"^\""
par DronesNetwork.car[48].mobility coordinateSystemModule "\"\""
par DronesNetwork.car[48].mobility displayStringTextFormat "\"p: %p\\nv: %v\""
attr mutable ""
par DronesNetwork.car[48].mobility updateDisplayString true
par DronesNetwork.car[48].mobility constraintAreaMinX "-inf m"
attr unit m
par DronesNetwork.car[48].mobility constraintAreaMinY "-inf m"
attr unit m
par DronesNetwork.car[48].mobility constraintAreaMinZ "-inf m"
attr unit m
par DronesNetwork.car[48].mobility constraintAreaMaxX "inf m"
attr unit m
par DronesNetwork.car[48].mobility constraintAreaMaxY "inf m"
attr unit m
par DronesNetwork.car[48].mobility constraintAreaMaxZ "inf m"
attr unit m
par DronesNetwork.car[48].mobility initFromDisplayString true
par DronesNetwork.car[48] typename "\"dronestfg.nodes.UAV\""
par DronesNetwork.car[48] mobilityType "\"org.car2x.veins.subprojects.veins_inet.VeinsInetMobility\""
par DronesNetwork.car[89].mobility typename "\"org.car2x.veins.subprojects.veins_inet.VeinsInetMobility\""
par DronesNetwork.car[89].mobility subjectModule "\"^\""
par DronesNetwork.car[89].mobility coordinateSystemModule "\"\""
par DronesNetwork.car[89].mobility displayStringTextFormat "\"p: %p\\nv: %v\""
attr mutable ""
par DronesNetwork.car[89].mobility updateDisplayString true
par DronesNetwork.car[89].mobility constraintAreaMinX "-inf m"
attr unit m
par DronesNetwork.car[89].mobility constraintAreaMinY "-inf m"
attr unit m
par DronesNetwork.car[89].mobility constraintAreaMinZ "-inf m"
attr unit m
par DronesNetwork.car[89].mobility constraintAreaMaxX "inf m"
attr unit m
par DronesNetwork.car[89].mobility constraintAreaMaxY "inf m"
attr unit m
par DronesNetwork.car[89].mobility constraintAreaMaxZ "inf m"
attr unit m
par DronesNetwork.car[89].mobility initFromDisplayString true
par DronesNetwork.car[89] typename "\"dronestfg.nodes.UAV\""
par DronesNetwork.car[89] mobilityType "\"org.car2x.veins.subprojects.veins_inet.VeinsInetMobility\""
par DronesNetwork.car[74].mobility typename "\"org.car2x.veins.subprojects.veins_inet.VeinsInetMobility\""
par DronesNetwork.car[74].mobility subjectModule "\"^\""
par DronesNetwork.car[74].mobility coordinateSystemModule "\"\""
par DronesNetwork.car[74].mobility displayStringTextFormat "\"p: %p\\nv: %v\""
attr mutable ""
par DronesNetwork.car[74].mobility updateDisplayString true
par DronesNetwork.car[74].mobility constraintAreaMinX "-inf m"
attr unit m
par DronesNetwork.car[74].mobility constraintAreaMinY "-inf m"
attr unit m
par DronesNetwork.car[74].mobility constraintAreaMinZ "-inf m"
attr unit m
par DronesNetwork.car[74].mobility constraintAreaMaxX "inf m"
attr unit m
par DronesNetwork.car[74].mobility constraintAreaMaxY "inf m"
attr unit m
par DronesNetwork.car[74].mobility constraintAreaMaxZ "inf m"
attr unit m
par DronesNetwork.car[74].mobility initFromDisplayString true
par DronesNetwork.car[74] typename "\"dronestfg.nodes.UAV\""
par DronesNetwork.car[74] mobilityType "\"org.car2x.veins.subprojects.veins_inet.VeinsInetMobility\""
par DronesNetwork.car[82].mobility typename "\"org.car2x.veins.subprojects.veins_inet.VeinsInetMobility\""
par DronesNetwork.car[82].mobility subjectModule "\"^\""
par DronesNetwork.car[82].mobility coordinateSystemModule "\"\""
par DronesNetwork.car[82].mobility displayStringTextFormat "\"p: %p\\nv: %v\""
attr mutable ""
par DronesNetwork.car[82].mobility updateDisplayString true
par DronesNetwork.car[82].mobility constraintAreaMinX "-inf m"
attr unit m
par DronesNetwork.car[82].mobility constraintAreaMinY "-inf m"
attr unit m
par DronesNetwork.car[82].mobility constraintAreaMinZ "-inf m"
attr unit m
par DronesNetwork.car[82].mobility constraintAreaMaxX "inf m"
attr unit m
par DronesNetwork.car[82].mobility constraintAreaMaxY "inf m"
attr unit m
par DronesNetwork.car[82].mobility constraintAreaMaxZ "inf m"
attr unit m
par DronesNetwork.car[82].mobility initFromDisplayString true
par DronesNetwork.car[82] typename "\"dronestfg.nodes.UAV\""
par DronesNetwork.car[82] mobilityType "\"org.car2x.veins.subprojects.veins_inet.VeinsInetMobility\""
par DronesNetwork.car[90].mobility typename "\"org.car2x.veins.subprojects.veins_inet.VeinsInetMobility\""
par DronesNetwork.car[90].mobility subjectModule "\"^\""
par DronesNetwork.car[90].mobility coordinateSystemModule "\"\""
par DronesNetwork.car[90].mobility displayStringTextFormat "\"p: %p\\nv: %v\""
attr mutable ""
par DronesNetwork.car[90].mobility updateDisplayString true
par DronesNetwork.car[90].mobility constraintAreaMinX "-inf m"
attr unit m
par DronesNetwork.car[90].mobility constraintAreaMinY "-inf m"
attr unit m
par DronesNetwork.car[90].mobility constraintAreaMinZ "-inf m"
attr unit m
par DronesNetwork.car[90].mobility constraintAreaMaxX "inf m"
attr unit m
par DronesNetwork.car[90].mobility constraintAreaMaxY "inf m"
attr unit m
par DronesNetwork.car[90].mobility constraintAreaMaxZ "inf m"
attr unit m
par DronesNetwork.car[90].mobility initFromDisplayString true
par DronesNetwork.car[90] typename "\"dronestfg.nodes.UAV\""
par DronesNetwork.car[90] mobilityType "\"org.car2x.veins.subprojects.veins_inet.VeinsInetMobility\""
par DronesNetwork.car[79].mobility typename "\"org.car2x.veins.subprojects.veins_inet.VeinsInetMobility\""
par DronesNetwork.car[79].mobility subjectModule "\"^\""
par DronesNetwork.car[79].mobility coordinateSystemModule "\"\""
par DronesNetwork.car[79].mobility displayStringTextFormat "\"p: %p\\nv: %v\""
attr mutable ""
par DronesNetwork.car[79].mobility updateDisplayString true
par DronesNetwork.car[79].mobility constraintAreaMinX "-inf m"
attr unit m
par DronesNetwork.car[79].mobility constraintAreaMinY "-inf m"
attr unit m
par DronesNetwork.car[79].mobility constraintAreaMinZ "-inf m"
attr unit m
par DronesNetwork.car[79].mobility constraintAreaMaxX "inf m"
attr unit m
par DronesNetwork.car[79].mobility constraintAreaMaxY "inf m"
attr unit m
par DronesNetwork.car[79].mobility constraintAreaMaxZ "inf m"
attr unit m
par DronesNetwork.car[79].mobility initFromDisplayString true
par DronesNetwork.car[79] typename "\"dronestfg.nodes.UAV\""
par DronesNetwork.car[79] mobilityType "\"org.car2x.veins.subprojects.veins_inet.VeinsInetMobility\""
par DronesNetwork.car[83].mobility typename "\"org.car2x.veins.subprojects.veins_inet.VeinsInetMobility\""
par DronesNetwork.car[83].mobility subjectModule "\"^\""
par DronesNetwork.car[83].mobility coordinateSystemModule "\"\""
par DronesNetwork.car[83].mobility displayStringTextFormat "\"p: %p\\nv: %v\""
attr mutable ""
par DronesNetwork.car[83].mobility updateDisplayString true
par DronesNetwork.car[83].mobility constraintAreaMinX "-inf m"
attr unit m
par DronesNetwork.car[83].mobility constraintAreaMinY "-inf m"
attr unit m
par DronesNetwork.car[83].mobility constraintAreaMinZ "-inf m"
attr unit m
par DronesNetwork.car[83].mobility constraintAreaMaxX "inf m"
attr unit m
par DronesNetwork.car[83].mobility constraintAreaMaxY "inf m"
attr unit m
par DronesNetwork.car[83].mobility constraintAreaMaxZ "inf m"
attr unit m
par DronesNetwork.car[83].mobility initFromDisplayString true
par DronesNetwork.car[83] typename "\"dronestfg.nodes.UAV\""
par DronesNetwork.car[83] mobilityType "\"org.car2x.veins.subprojects.veins_inet.VeinsInetMobility\""
par DronesNetwork.car[93].mobility typename "\"org.car2x.veins.subprojects.veins_inet.VeinsInetMobility\""
par DronesNetwork.car[93].mobility subjectModule "\"^\""
par DronesNetwork.car[93].mobility coordinateSystemModule "\"\""
par DronesNetwork.car[93].mobility displayStringTextFormat "\"p: %p\\nv: %v\""
attr mutable ""
par DronesNetwork.car[93].mobility updateDisplayString true
par DronesNetwork.car[93].mobility constraintAreaMinX "-inf m"
attr unit m
par DronesNetwork.car[93].mobility constraintAreaMinY "-inf m"
attr unit m
par DronesNetwork.car[93].mobility constraintAreaMinZ "-inf m"
attr unit m
par DronesNetwork.car[93].mobility constraintAreaMaxX "inf m"
attr unit m
par DronesNetwork.car[93].mobility constraintAreaMaxY "inf m"
attr unit m
par DronesNetwork.car[93].mobility constraintAreaMaxZ "inf m"
attr unit m
par DronesNetwork.car[93].mobility initFromDisplayString true
par DronesNetwork.car[93] typename "\"dronestfg.nodes.UAV\""
par DronesNetwork.car[93] mobilityType "\"org.car2x.veins.subprojects.veins_inet.VeinsInetMobility\""
par DronesNetwork.car[75].mobility typename "\"org.car2x.veins.subprojects.veins_inet.VeinsInetMobility\""
par DronesNetwork.car[75].mobility subjectModule "\"^\""
par DronesNetwork.car[75].mobility coordinateSystemModule "\"\""
par DronesNetwork.car[75].mobility displayStringTextFormat "\"p: %p\\nv: %v\""
attr mutable ""
par DronesNetwork.car[75].mobility updateDisplayString true
par DronesNetwork.car[75].mobility constraintAreaMinX "-inf m"
attr unit m
par DronesNetwork.car[75].mobility constraintAreaMinY "-inf m"
attr unit m
par DronesNetwork.car[75].mobility constraintAreaMinZ "-inf m"
attr unit m
par DronesNetwork.car[75].mobility constraintAreaMaxX "inf m"
attr unit m
par DronesNetwork.car[75].mobility constraintAreaMaxY "inf m"
attr unit m
par DronesNetwork.car[75].mobility constraintAreaMaxZ "inf m"
attr unit m
par DronesNetwork.car[75].mobility initFromDisplayString true
par DronesNetwork.car[75] typename "\"dronestfg.nodes.UAV\""
par DronesNetwork.car[75] mobilityType "\"org.car2x.veins.subprojects.veins_inet.VeinsInetMobility\""
par DronesNetwork.car[86].mobility typename "\"org.car2x.veins.subprojects.veins_inet.VeinsInetMobility\""
par DronesNetwork.car[86].mobility subjectModule "\"^\""
par DronesNetwork.car[86].mobility coordinateSystemModule "\"\""
par DronesNetwork.car[86].mobility displayStringTextFormat "\"p: %p\\nv: %v\""
attr mutable ""
par DronesNetwork.car[86].mobility updateDisplayString true
par DronesNetwork.car[86].mobility constraintAreaMinX "-inf m"
attr unit m
par DronesNetwork.car[86].mobility constraintAreaMinY "-inf m"
attr unit m
par DronesNetwork.car[86].mobility constraintAreaMinZ "-inf m"
attr unit m
par DronesNetwork.car[86].mobility constraintAreaMaxX "inf m"
attr unit m
par DronesNetwork.car[86].mobility constraintAreaMaxY "inf m"
attr unit m
par DronesNetwork.car[86].mobility constraintAreaMaxZ "inf m"
attr unit m
par DronesNetwork.car[86].mobility initFromDisplayString true
par DronesNetwork.car[86] typename "\"dronestfg.nodes.UAV\""
par DronesNetwork.car[86] mobilityType "\"org.car2x.veins.subprojects.veins_inet.VeinsInetMobility\""
par DronesNetwork.car[101].mobility typename "\"org.car2x.veins.subprojects.veins_inet.VeinsInetMobility\""
par DronesNetwork.car[101].mobility subjectModule "\"^\""
par DronesNetwork.car[101].mobility coordinateSystemModule "\"\""
par DronesNetwork.car[101].mobility displayStringTextFormat "\"p: %p\\nv: %v\""
attr mutable ""
par DronesNetwork.car[101].mobility updateDisplayString true
par DronesNetwork.car[101].mobility constraintAreaMinX "-inf m"
attr unit m
par DronesNetwork.car[101].mobility constraintAreaMinY "-inf m"
attr unit m
par DronesNetwork.car[101].mobility constraintAreaMinZ "-inf m"
attr unit m
par DronesNetwork.car[101].mobility constraintAreaMaxX "inf m"
attr unit m
par DronesNetwork.car[101].mobility constraintAreaMaxY "inf m"
attr unit m
par DronesNetwork.car[101].mobility constraintAreaMaxZ "inf m"
attr unit m
par DronesNetwork.car[101].mobility initFromDisplayString true
par DronesNetwork.car[101] typename "\"dronestfg.nodes.UAV\""
par DronesNetwork.car[101] mobilityType "\"org.car2x.veins.subprojects.veins_inet.VeinsInetMobility\""
par DronesNetwork.car[84].mobility typename "\"org.car2x.veins.subprojects.veins_inet.VeinsInetMobility\""
par DronesNetwork.car[84].mobility subjectModule "\"^\""
par DronesNetwork.car[84].mobility coordinateSystemModule "\"\""
par DronesNetwork.car[84].mobility displayStringTextFormat "\"p: %p\\nv: %v\""
attr mutable ""
par DronesNetwork.car[84].mobility updateDisplayString true
par DronesNetwork.car[84].mobility constraintAreaMinX "-inf m"
attr unit m
par DronesNetwork.car[84].mobility constraintAreaMinY "-inf m"
attr unit m
par DronesNetwork.car[84].mobility constraintAreaMinZ "-inf m"
attr unit m
par DronesNetwork.car[84].mobility constraintAreaMaxX "inf m"
attr unit m
par DronesNetwork.car[84].mobility constraintAreaMaxY "inf m"
attr unit m
par DronesNetwork.car[84].mobility constraintAreaMaxZ "inf m"
attr unit m
par DronesNetwork.car[84].mobility initFromDisplayString true
par DronesNetwork.car[84] typename "\"dronestfg.nodes.UAV\""
par DronesNetwork.car[84] mobilityType "\"org.car2x.veins.subprojects.veins_inet.VeinsInetMobility\""
par DronesNetwork.car[92].mobility typename "\"org.car2x.veins.subprojects.veins_inet.VeinsInetMobility\""
par DronesNetwork.car[92].mobility subjectModule "\"^\""
par DronesNetwork.car[92].mobility coordinateSystemModule "\"\""
par DronesNetwork.car[92].mobility displayStringTextFormat "\"p: %p\\nv: %v\""
attr mutable ""
par DronesNetwork.car[92].mobility updateDisplayString true
par DronesNetwork.car[92].mobility constraintAreaMinX "-inf m"
attr unit m
par DronesNetwork.car[92].mobility constraintAreaMinY "-inf m"
attr unit m
par DronesNetwork.car[92].mobility constraintAreaMinZ "-inf m"
attr unit m
par DronesNetwork.car[92].mobility constraintAreaMaxX "inf m"
attr unit m
par DronesNetwork.car[92].mobility constraintAreaMaxY "inf m"
attr unit m
par DronesNetwork.car[92].mobility constraintAreaMaxZ "inf m"
attr unit m
par DronesNetwork.car[92].mobility initFromDisplayString true
par DronesNetwork.car[92] typename "\"dronestfg.nodes.UAV\""
par DronesNetwork.car[92] mobilityType "\"org.car2x.veins.subprojects.veins_inet.VeinsInetMobility\""
par DronesNetwork.car[57].mobility typename "\"org.car2x.veins.subprojects.veins_inet.VeinsInetMobility\""
par DronesNetwork.car[57].mobility subjectModule "\"^\""
par DronesNetwork.car[57].mobility coordinateSystemModule "\"\""
par DronesNetwork.car[57].mobility displayStringTextFormat "\"p: %p\\nv: %v\""
attr mutable ""
par DronesNetwork.car[57].mobility updateDisplayString true
par DronesNetwork.car[57].mobility constraintAreaMinX "-inf m"
attr unit m
par DronesNetwork.car[57].mobility constraintAreaMinY "-inf m"
attr unit m
par DronesNetwork.car[57].mobility constraintAreaMinZ "-inf m"
attr unit m
par DronesNetwork.car[57].mobility constraintAreaMaxX "inf m"
attr unit m
par DronesNetwork.car[57].mobility constraintAreaMaxY "inf m"
attr unit m
par DronesNetwork.car[57].mobility constraintAreaMaxZ "inf m"
attr unit m
par DronesNetwork.car[57].mobility initFromDisplayString true
par DronesNetwork.car[57] typename "\"dronestfg.nodes.UAV\""
par DronesNetwork.car[57] mobilityType "\"org.car2x.veins.subprojects.veins_inet.VeinsInetMobility\""
par DronesNetwork.car[94].mobility typename "\"org.car2x.veins.subprojects.veins_inet.VeinsInetMobility\""
par DronesNetwork.car[94].mobility subjectModule "\"^\""
par DronesNetwork.car[94].mobility coordinateSystemModule "\"\""
par DronesNetwork.car[94].mobility displayStringTextFormat "\"p: %p\\nv: %v\""
attr mutable ""
par DronesNetwork.car[94].mobility updateDisplayString true
par DronesNetwork.car[94].mobility constraintAreaMinX "-inf m"
attr unit m
par DronesNetwork.car[94].mobility constraintAreaMinY "-inf m"
attr unit m
par DronesNetwork.car[94].mobility constraintAreaMinZ "-inf m"
attr unit m
par DronesNetwork.car[94].mobility constraintAreaMaxX "inf m"
attr unit m
par DronesNetwork.car[94].mobility constraintAreaMaxY "inf m"
attr unit m
par DronesNetwork.car[94].mobility constraintAreaMaxZ "inf m"
attr unit m
par DronesNetwork.car[94].mobility initFromDisplayString true
par DronesNetwork.car[94] typename "\"dronestfg.nodes.UAV\""
par DronesNetwork.car[94] mobilityType "\"org.car2x.veins.subprojects.veins_inet.VeinsInetMobility\""
par DronesNetwork.car[61].mobility typename "\"org.car2x.veins.subprojects.veins_inet.VeinsInetMobility\""
par DronesNetwork.car[61].mobility subjectModule "\"^\""
par DronesNetwork.car[61].mobility coordinateSystemModule "\"\""
par DronesNetwork.car[61].mobility displayStringTextFormat "\"p: %p\\nv: %v\""
attr mutable ""
par DronesNetwork.car[61].mobility updateDisplayString true
par DronesNetwork.car[61].mobility constraintAreaMinX "-inf m"
attr unit m
[...]
par DronesNetwork.uav[3].mobility constraintAreaMinX "-inf m"
attr unit m
par DronesNetwork.uav[3].mobility constraintAreaMinY "-inf m"
attr unit m
par DronesNetwork.uav[3].mobility constraintAreaMinZ "-inf m"
attr unit m
par DronesNetwork.uav[3].mobility constraintAreaMaxX "inf m"
attr unit m
par DronesNetwork.uav[3].mobility constraintAreaMaxY "inf m"
attr unit m
par DronesNetwork.uav[3].mobility constraintAreaMaxZ "inf m"
attr unit m
par DronesNetwork.uav[3].mobility initFromDisplayString true
par DronesNetwork.uav[3] typename "\"dronestfg.nodes.UAV\""
par DronesNetwork.uav[3] mobilityType "\"org.car2x.veins.subprojects.veins_inet.VeinsInetMobility\""
par DronesNetwork.uav[4].mobility typename "\"org.car2x.veins.subprojects.veins_inet.VeinsInetMobility\""
par DronesNetwork.uav[4].mobility subjectModule "\"^\""
par DronesNetwork.uav[4].mobility coordinateSystemModule "\"\""
par DronesNetwork.uav[4].mobility displayStringTextFormat "\"p: %p\\nv: %v\""
attr mutable ""
par DronesNetwork.uav[4].mobility updateDisplayString true
par DronesNetwork.uav[4].mobility constraintAreaMinX "-inf m"
attr unit m
par DronesNetwork.uav[4].mobility constraintAreaMinY "-inf m"
attr unit m
par DronesNetwork.uav[4].mobility constraintAreaMinZ "-inf m"
attr unit m
par DronesNetwork.uav[4].mobility constraintAreaMaxX "inf m"
attr unit m
par DronesNetwork.uav[4].mobility constraintAreaMaxY "inf m"
attr unit m
par DronesNetwork.uav[4].mobility constraintAreaMaxZ "inf m"
attr unit m
par DronesNetwork.uav[4].mobility initFromDisplayString true
par DronesNetwork.uav[4] typename "\"dronestfg.nodes.UAV\""
par DronesNetwork.uav[4] mobilityType "\"org.car2x.veins.subprojects.veins_inet.VeinsInetMobility\""
par DronesNetwork.uav[5].mobility typename "\"org.car2x.veins.subprojects.veins_inet.VeinsInetMobility\""
par DronesNetwork.uav[5].mobility subjectModule "\"^\""
par DronesNetwork.uav[5].mobility coordinateSystemModule "\"\""
par DronesNetwork.uav[5].mobility displayStringTextFormat "\"p: %p\\nv: %v\""
attr mutable ""
par DronesNetwork.uav[5].mobility updateDisplayString true
par DronesNetwork.uav[5].mobility constraintAreaMinX "-inf m"
attr unit m
par DronesNetwork.uav[5].mobility constraintAreaMinY "-inf m"
attr unit m
par DronesNetwork.uav[5].mobility constraintAreaMinZ "-inf m"
attr unit m
par DronesNetwork.uav[5].mobility constraintAreaMaxX "inf m"
attr unit m
par DronesNetwork.uav[5].mobility constraintAreaMaxY "inf m"
attr unit m
par DronesNetwork.uav[5].mobility constraintAreaMaxZ "inf m"
attr unit m
par DronesNetwork.uav[5].mobility initFromDisplayString true
par DronesNetwork.uav[5] typename "\"dronestfg.nodes.UAV\""
par DronesNetwork.uav[5] mobilityType "\"org.car2x.veins.subprojects.veins_inet.VeinsInetMobility\""
par DronesNetwork.uav[6].mobility typename "\"org.car2x.veins.subprojects.veins_inet.VeinsInetMobility\""
par DronesNetwork.uav[6].mobility subjectModule "\"^\""
par DronesNetwork.uav[6].mobility coordinateSystemModule "\"\""
par DronesNetwork.uav[6].mobility displayStringTextFormat "\"p: %p\\nv: %v\""
attr mutable ""
par DronesNetwork.uav[6].mobility updateDisplayString true
par DronesNetwork.uav[6].mobility constraintAreaMinX "-inf m"
attr unit m
par DronesNetwork.uav[6].mobility constraintAreaMinY "-inf m"
attr unit m
par DronesNetwork.uav[6].mobility constraintAreaMinZ "-inf m"
attr unit m
par DronesNetwork.uav[6].mobility constraintAreaMaxX "inf m"
attr unit m
par DronesNetwork.uav[6].mobility constraintAreaMaxY "inf m"
attr unit m
par DronesNetwork.uav[6].mobility constraintAreaMaxZ "inf m"
attr unit m
par DronesNetwork.uav[6].mobility initFromDisplayString true
par DronesNetwork.uav[6] typename "\"dronestfg.nodes.UAV\""
par DronesNetwork.uav[6] mobilityType "\"org.car2x.veins.subprojects.veins_inet.VeinsInetMobility\""
par DronesNetwork.uav[7].mobility typename "\"org.car2x.veins.subprojects.veins_inet.VeinsInetMobility\""
par DronesNetwork.uav[7].mobility subjectModule "\"^\""
par DronesNetwork.uav[7].mobility coordinateSystemModule "\"\""
par DronesNetwork.uav[7].mobility displayStringTextFormat "\"p: %p\\nv: %v\""
attr mutable ""
par DronesNetwork.uav[7].mobility updateDisplayString true
par DronesNetwork.uav[7].mobility constraintAreaMinX "-inf m"
attr unit m
par DronesNetwork.uav[7].mobility constraintAreaMinY "-inf m"
attr unit m
par DronesNetwork.uav[7].mobility constraintAreaMinZ "-inf m"
attr unit m
par DronesNetwork.uav[7].mobility constraintAreaMaxX "inf m"
attr unit m
par DronesNetwork.uav[7].mobility constraintAreaMaxY "inf m"
attr unit m
par DronesNetwork.uav[7].mobility constraintAreaMaxZ "inf m"
attr unit m
par DronesNetwork.uav[7].mobility initFromDisplayString true
par DronesNetwork.uav[7] typename "\"dronestfg.nodes.UAV\""
par DronesNetwork.uav[7] mobilityType "\"org.car2x.veins.subprojects.veins_inet.VeinsInetMobility\""
par DronesNetwork.uav[8].mobility typename "\"org.car2x.veins.subprojects.veins_inet.VeinsInetMobility\""
par DronesNetwork.uav[8].mobility subjectModule "\"^\""
par DronesNetwork.uav[8].mobility coordinateSystemModule "\"\""
par DronesNetwork.uav[8].mobility displayStringTextFormat "\"p: %p\\nv: %v\""
attr mutable ""
par DronesNetwork.uav[8].mobility updateDisplayString true
par DronesNetwork.uav[8].mobility constraintAreaMinX "-inf m"
attr unit m
par DronesNetwork.uav[8].mobility constraintAreaMinY "-inf m"
attr unit m
par DronesNetwork.uav[8].mobility constraintAreaMinZ "-inf m"
attr unit m
par DronesNetwork.uav[8].mobility constraintAreaMaxX "inf m"
attr unit m
par DronesNetwork.uav[8].mobility constraintAreaMaxY "inf m"
attr unit m
par DronesNetwork.uav[8].mobility constraintAreaMaxZ "inf m"
attr unit m
par DronesNetwork.uav[8].mobility initFromDisplayString true
par DronesNetwork.uav[8] typename "\"dronestfg.nodes.UAV\""
par DronesNetwork.uav[8] mobilityType "\"org.car2x.veins.subprojects.veins_inet.VeinsInetMobility\""
par DronesNetwork.uav[9].mobility typename "\"org.car2x.veins.subprojects.veins_inet.VeinsInetMobility\""
par DronesNetwork.uav[9].mobility subjectModule "\"^\""
par DronesNetwork.uav[9].mobility coordinateSystemModule "\"\""
par DronesNetwork.uav[9].mobility displayStringTextFormat "\"p: %p\\nv: %v\""
attr mutable ""
par DronesNetwork.uav[9].mobility updateDisplayString true
par DronesNetwork.uav[9].mobility constraintAreaMinX "-inf m"
attr unit m
par DronesNetwork.uav[9].mobility constraintAreaMinY "-inf m"
attr unit m
par DronesNetwork.uav[9].mobility constraintAreaMinZ "-inf m"
attr unit m
par DronesNetwork.uav[9].mobility constraintAreaMaxX "inf m"
attr unit m
par DronesNetwork.uav[9].mobility constraintAreaMaxY "inf m"
attr unit m
par DronesNetwork.uav[9].mobility constraintAreaMaxZ "inf m"
attr unit m
par DronesNetwork.uav[9].mobility initFromDisplayString true
par DronesNetwork.uav[9] typename "\"dronestfg.nodes.UAV\""
par DronesNetwork.uav[9] mobilityType "\"org.car2x.veins.subprojects.veins_inet.VeinsInetMobility\""
par DronesNetwork.car[287].mobility typename "\"org.car2x.veins.subprojects.veins_inet.VeinsInetMobility\""
par DronesNetwork.car[287].mobility subjectModule "\"^\""
par DronesNetwork.car[287].mobility coordinateSystemModule "\"\""
par DronesNetwork.car[287].mobility displayStringTextFormat "\"p: %p\\nv: %v\""
attr mutable ""
par DronesNetwork.car[287].mobility updateDisplayString true
par DronesNetwork.car[287].mobility constraintAreaMinX "-inf m"
attr unit m
par DronesNetwork.car[287].mobility constraintAreaMinY "-inf m"
attr unit m
par DronesNetwork.car[287].mobility constraintAreaMinZ "-inf m"
attr unit m
par DronesNetwork.car[287].mobility constraintAreaMaxX "inf m"
attr unit m
par DronesNetwork.car[287].mobility constraintAreaMaxY "inf m"
attr unit m
par DronesNetwork.car[287].mobility constraintAreaMaxZ "inf m"
attr unit m
par DronesNetwork.car[287].mobility initFromDisplayString true
par DronesNetwork.car[287] typename "\"dronestfg.nodes.UAV\""
par DronesNetwork.car[287] mobilityType "\"org.car2x.veins.subprojects.veins_inet.VeinsInetMobility\""
par DronesNetwork.car[296].mobility typename "\"org.car2x.veins.subprojects.veins_inet.VeinsInetMobility\""
par DronesNetwork.car[296].mobility subjectModule "\"^\""
par DronesNetwork.car[296].mobility coordinateSystemModule "\"\""
par DronesNetwork.car[296].mobility displayStringTextFormat "\"p: %p\\nv: %v\""
attr mutable ""
par DronesNetwork.car[296].mobility updateDisplayString true
par DronesNetwork.car[296].mobility constraintAreaMinX "-inf m"
attr unit m
par DronesNetwork.car[296].mobility constraintAreaMinY "-inf m"
attr unit m
par DronesNetwork.car[296].mobility constraintAreaMinZ "-inf m"
attr unit m
par DronesNetwork.car[296].mobility constraintAreaMaxX "inf m"
attr unit m
par DronesNetwork.car[296].mobility constraintAreaMaxY "inf m"
attr unit m
par DronesNetwork.car[296].mobility constraintAreaMaxZ "inf m"
attr unit m
par DronesNetwork.car[296].mobility initFromDisplayString true
par DronesNetwork.car[296] typename "\"dronestfg.nodes.UAV\""
par DronesNetwork.car[296] mobilityType "\"org.car2x.veins.subprojects.veins_inet.VeinsInetMobility\""
par DronesNetwork.car[304].mobility typename "\"org.car2x.veins.subprojects.veins_inet.VeinsInetMobility\""
par DronesNetwork.car[304].mobility subjectModule "\"^\""
par DronesNetwork.car[304].mobility coordinateSystemModule "\"\""
par DronesNetwork.car[304].mobility displayStringTextFormat "\"p: %p\\nv: %v\""
attr mutable ""
par DronesNetwork.car[304].mobility updateDisplayString true
par DronesNetwork.car[304].mobility constraintAreaMinX "-inf m"
attr unit m
par DronesNetwork.car[304].mobility constraintAreaMinY "-inf m"
attr unit m
par DronesNetwork.car[304].mobility constraintAreaMinZ "-inf m"
attr unit m
par DronesNetwork.car[304].mobility constraintAreaMaxX "inf m"
attr unit m
par DronesNetwork.car[304].mobility constraintAreaMaxY "inf m"
attr unit m
par DronesNetwork.car[304].mobility constraintAreaMaxZ "inf m"
attr unit m
par DronesNetwork.car[304].mobility initFromDisplayString true
par DronesNetwork.car[304] typename "\"dronestfg.nodes.UAV\""
par DronesNetwork.car[304] mobilityType "\"org.car2x.veins.subprojects.veins_inet.VeinsInetMobility\""
par DronesNetwork.car[309].mobility typename "\"org.car2x.veins.subprojects.veins_inet.VeinsInetMobility\""
par DronesNetwork.car[309].mobility subjectModule "\"^\""
par DronesNetwork.car[309].mobility coordinateSystemModule "\"\""
par DronesNetwork.car[309].mobility displayStringTextFormat "\"p: %p\\nv: %v\""
attr mutable ""
par DronesNetwork.car[309].mobility updateDisplayString true
par DronesNetwork.car[309].mobility constraintAreaMinX "-inf m"
attr unit m
par DronesNetwork.car[309].mobility constraintAreaMinY "-inf m"
attr unit m
par DronesNetwork.car[309].mobility constraintAreaMinZ "-inf m"
attr unit m
par DronesNetwork.car[309].mobility constraintAreaMaxX "inf m"
attr unit m
par DronesNetwork.car[309].mobility constraintAreaMaxY "inf m"
attr unit m
par DronesNetwork.car[309].mobility constraintAreaMaxZ "inf m"
attr unit m
par DronesNetwork.car[309].mobility initFromDisplayString true
par DronesNetwork.car[309] typename "\"dronestfg.nodes.UAV\""
par DronesNetwork.car[309] mobilityType "\"org.car2x.veins.subprojects.veins_inet.VeinsInetMobility\""
par DronesNetwork.car[311].mobility typename "\"org.car2x.veins.subprojects.veins_inet.VeinsInetMobility\""
par DronesNetwork.car[311].mobility subjectModule "\"^\""
par DronesNetwork.car[311].mobility coordinateSystemModule "\"\""
par DronesNetwork.car[311].mobility displayStringTextFormat "\"p: %p\\nv: %v\""
attr mutable ""
par DronesNetwork.car[311].mobility updateDisplayString true
par DronesNetwork.car[311].mobility constraintAreaMinX "-inf m"
attr unit m
par DronesNetwork.car[311].mobility constraintAreaMinY "-inf m"
attr unit m
par DronesNetwork.car[311].mobility constraintAreaMinZ "-inf m"
attr unit m
par DronesNetwork.car[311].mobility constraintAreaMaxX "inf m"
attr unit m
par DronesNetwork.car[311].mobility constraintAreaMaxY "inf m"
attr unit m
par DronesNetwork.car[311].mobility constraintAreaMaxZ "inf m"
attr unit m
par DronesNetwork.car[311].mobility initFromDisplayString true
par DronesNetwork.car[311] typename "\"dronestfg.nodes.UAV\""
par DronesNetwork.car[311] mobilityType "\"org.car2x.veins.subprojects.veins_inet.VeinsInetMobility\""
par DronesNetwork.car[316].mobility typename "\"org.car2x.veins.subprojects.veins_inet.VeinsInetMobility\""
par DronesNetwork.car[316].mobility subjectModule "\"^\""
par DronesNetwork.car[316].mobility coordinateSystemModule "\"\""
par DronesNetwork.car[316].mobility displayStringTextFormat "\"p: %p\\nv: %v\""
attr mutable ""
par DronesNetwork.car[316].mobility updateDisplayString true
par DronesNetwork.car[316].mobility constraintAreaMinX "-inf m"
attr unit m
par DronesNetwork.car[316].mobility constraintAreaMinY "-inf m"
attr unit m
par DronesNetwork.car[316].mobility constraintAreaMinZ "-inf m"
attr unit m
par DronesNetwork.car[316].mobility constraintAreaMaxX "inf m"
attr unit m
par DronesNetwork.car[316].mobility constraintAreaMaxY "inf m"
attr unit m
par DronesNetwork.car[316].mobility constraintAreaMaxZ "inf m"
attr unit m
par DronesNetwork.car[316].mobility initFromDisplayString true
par DronesNetwork.car[316] typename "\"dronestfg.nodes.UAV\""
par DronesNetwork.car[316] mobilityType "\"org.car2x.veins.subprojects.veins_inet.VeinsInetMobility\""
par DronesNetwork.car[319].mobility typename "\"org.car2x.veins.subprojects.veins_inet.VeinsInetMobility\""
par DronesNetwork.car[319].mobility subjectModule "\"^\""
par DronesNetwork.car[319].mobility coordinateSystemModule "\"\""
par DronesNetwork.car[319].mobility displayStringTextFormat "\"p: %p\\nv: %v\""
attr mutable ""
par DronesNetwork.car[319].mobility updateDisplayString true
par DronesNetwork.car[319].mobility constraintAreaMinX "-inf m"
attr unit m
par DronesNetwork.car[319].mobility constraintAreaMinY "-inf m"
attr unit m
par DronesNetwork.car[319].mobility constraintAreaMinZ "-inf m"
attr unit m
par DronesNetwork.car[319].mobility constraintAreaMaxX "inf m"
attr unit m
par DronesNetwork.car[319].mobility constraintAreaMaxY "inf m"
attr unit m
par DronesNetwork.car[319].mobility constraintAreaMaxZ "inf m"
attr unit m
par DronesNetwork.car[319].mobility initFromDisplayString true
par DronesNetwork.car[319] typename "\"dronestfg.nodes.UAV\""
par DronesNetwork.car[319] mobilityType "\"org.car2x.veins.subprojects.veins_inet.VeinsInetMobility\""
par DronesNetwork.car[322].mobility typename "\"org.car2x.veins.subprojects.veins_inet.VeinsInetMobility\""
par DronesNetwork.car[322].mobility subjectModule "\"^\""
par DronesNetwork.car[322].mobility coordinateSystemModule "\"\""
par DronesNetwork.car[322].mobility displayStringTextFormat "\"p: %p\\nv: %v\""
attr mutable ""
par DronesNetwork.car[322].mobility updateDisplayString true
par DronesNetwork.car[322].mobility constraintAreaMinX "-inf m"
attr unit m
par DronesNetwork.car[322].mobility constraintAreaMinY "-inf m"
attr unit m
par DronesNetwork.car[322].mobility constraintAreaMinZ "-inf m"
attr unit m
par DronesNetwork.car[322].mobility constraintAreaMaxX "inf m"
attr unit m
par DronesNetwork.car[322].mobility constraintAreaMaxY "inf m"
attr unit m
par DronesNetwork.car[322].mobility constraintAreaMaxZ "inf m"
attr unit m
par DronesNetwork.car[322].mobility initFromDisplayString true
par DronesNetwork.car[322] typename "\"dronestfg.nodes.UAV\""
par DronesNetwork.car[322] mobilityType "\"org.car2x.veins.subprojects.veins_inet.VeinsInetMobility\""
par DronesNetwork.car[323].mobility typename "\"org.car2x.veins.subprojects.veins_inet.VeinsInetMobility\""
par DronesNetwork.car[323].mobility subjectModule "\"^\""
par DronesNetwork.car[323].mobility coordinateSystemModule "\"\""
par DronesNetwork.car[323].mobility displayStringTextFormat "\"p: %p\\nv: %v\""
attr mutable ""
par DronesNetwork.car[323].mobility updateDisplayString true
par DronesNetwork.car[323].mobility constraintAreaMinX "-inf m"
attr unit m
par DronesNetwork.car[323].mobility constraintAreaMinY "-inf m"
attr unit m
par DronesNetwork.car[323].mobility constraintAreaMinZ "-inf m"
attr unit m
par DronesNetwork.car[323].mobility constraintAreaMaxX "inf m"
attr unit m
par DronesNetwork.car[323].mobility constraintAreaMaxY "inf m"
attr unit m
par DronesNetwork.car[323].mobility constraintAreaMaxZ "inf m"
attr unit m
par DronesNetwork.car[323].mobility initFromDisplayString true
par DronesNetwork.car[323] typename "\"dronestfg.nodes.UAV\""
par DronesNetwork.car[323] mobilityType "\"org.car2x.veins.subprojects.veins_inet.VeinsInetMobility\""
par DronesNetwork.car[324].mobility typename "\"org.car2x.veins.subprojects.veins_inet.VeinsInetMobility\""
par DronesNetwork.car[324].mobility subjectModule "\"^\""
par DronesNetwork.car[324].mobility coordinateSystemModule "\"\""
par DronesNetwork.car[324].mobility displayStringTextFormat "\"p: %p\\nv: %v\""
attr mutable ""
par DronesNetwork.car[324].mobility updateDisplayString true
par DronesNetwork.car[324].mobility constraintAreaMinX "-inf m"
attr unit m
par DronesNetwork.car[324].mobility constraintAreaMinY "-inf m"
attr unit m
par DronesNetwork.car[324].mobility constraintAreaMinZ "-inf m"
attr unit m
par DronesNetwork.car[324].mobility constraintAreaMaxX "inf m"
attr unit m
par DronesNetwork.car[324].mobility constraintAreaMaxY "inf m"
attr unit m
par DronesNetwork.car[324].mobility constraintAreaMaxZ "inf m"
attr unit m
par DronesNetwork.car[324].mobility initFromDisplayString true
par DronesNetwork.car[324] typename "\"dronestfg.nodes.UAV\""
par DronesNetwork.car[324] mobilityType "\"org.car2x.veins.subprojects.veins_inet.VeinsInetMobility\""
par DronesNetwork.car[325].mobility typename "\"org.car2x.veins.subprojects.veins_inet.VeinsInetMobility\""
par DronesNetwork.car[325].mobility subjectModule "\"^\""
par DronesNetwork.car[325].mobility coordinateSystemModule "\"\""
par DronesNetwork.car[325].mobility displayStringTextFormat "\"p: %p\\nv: %v\""
attr mutable ""
par DronesNetwork.car[325].mobility updateDisplayString true
par DronesNetwork.car[325].mobility constraintAreaMinX "-inf m"
attr unit m
par DronesNetwork.car[325].mobility constraintAreaMinY "-inf m"
attr unit m
par DronesNetwork.car[325].mobility constraintAreaMinZ "-inf m"
attr unit m
par DronesNetwork.car[325].mobility constraintAreaMaxX "inf m"
attr unit m
par DronesNetwork.car[325].mobility constraintAreaMaxY "inf m"
attr unit m
par DronesNetwork.car[325].mobility constraintAreaMaxZ "inf m"
attr unit m
par DronesNetwork.car[325].mobility initFromDisplayString true
par DronesNetwork.car[325] typename "\"dronestfg.nodes.UAV\""
par DronesNetwork.car[325] mobilityType "\"org.car2x.veins.subprojects.veins_inet.VeinsInetMobility\""
par DronesNetwork.car[326].mobility typename "\"org.car2x.veins.subprojects.veins_inet.VeinsInetMobility\""
par DronesNetwork.car[326].mobility subjectModule "\"^\""
par DronesNetwork.car[326].mobility coordinateSystemModule "\"\""
par DronesNetwork.car[326].mobility displayStringTextFormat "\"p: %p\\nv: %v\""
attr mutable ""
par DronesNetwork.car[326].mobility updateDisplayString true
par DronesNetwork.car[326].mobility constraintAreaMinX "-inf m"
attr unit m
par DronesNetwork.car[326].mobility constraintAreaMinY "-inf m"
attr unit m
par DronesNetwork.car[326].mobility constraintAreaMinZ "-inf m"
attr unit m
par DronesNetwork.car[326].mobility constraintAreaMaxX "inf m"
attr unit m
par DronesNetwork.car[326].mobility constraintAreaMaxY "inf m"
attr unit m
par DronesNetwork.car[326].mobility constraintAreaMaxZ "inf m"
attr unit m
par DronesNetwork.car[326].mobility initFromDisplayString true
par DronesNetwork.car[326] typename "\"dronestfg.nodes.UAV\""
par DronesNetwork.car[326] mobilityType "\"org.car2x.veins.subprojects.veins_inet.VeinsInetMobility\""
par DronesNetwork typename "\"dronestfg.simulations.DronesNetwork\""
par DronesNetwork playgroundSizeX 1500m
attr unit m
par DronesNetwork playgroundSizeY 1300m
attr unit m
par DronesNetwork playgroundSizeZ 500m
attr unit m

